Program Version,EnergyPlus, Version 8.6.0-198c6a3cff, YMD=2016.10.21 16:12
! <Version>, Version ID
 Version, 8.6
! <Timesteps per Hour>, #TimeSteps, Minutes per TimeStep {minutes}
 Timesteps per Hour,  6, 10
! <System Convergence Limits>, Minimum System TimeStep {minutes}, Max HVAC Iterations, Minimum Plant Iterations, Maximum Plant Iterations
 System Convergence Limits, 1, 20, 2, 8
! <Simulation Control>, Do Zone Sizing, Do System Sizing, Do Plant Sizing, Do Design Days, Do Weather Simulation, Do HVAC Sizing Simulation
 Simulation Control, No, No, No, No, Yes, No
! <Output Reporting Tolerances>, Tolerance for Time Heating Setpoint Not Met, Tolerance for Zone Cooling Setpoint Not Met Time
 Output Reporting Tolerances, 0.200, 0.200, 
! <Site:GroundTemperature:BuildingSurface>, Months From Jan to Dec {C}
 Site:GroundTemperature:BuildingSurface,  18.00,  18.00,  18.00,  18.00,  18.00,  18.00,  18.00,  18.00,  18.00,  18.00,  18.00,  18.00
! <Site:GroundTemperature:FCfactorMethod>, Months From Jan to Dec {C}
 Site:GroundTemperature:FCfactorMethod,  10.86,  10.57,  11.08,  11.88,  13.97,  15.58,  16.67,  17.00,  16.44,  15.19,  13.51,  11.96
! <Site:GroundTemperature:Shallow>, Months From Jan to Dec {C}
 Site:GroundTemperature:Shallow,  13.00,  13.00,  13.00,  13.00,  13.00,  13.00,  13.00,  13.00,  13.00,  13.00,  13.00,  13.00
! <Site:GroundTemperature:Deep>, Months From Jan to Dec {C}
 Site:GroundTemperature:Deep,  16.00,  16.00,  16.00,  16.00,  16.00,  16.00,  16.00,  16.00,  16.00,  16.00,  16.00,  16.00
! <Site:GroundReflectance>, Months From Jan to Dec {dimensionless}
 Site:GroundReflectance,  0.20,  0.20,  0.20,  0.20,  0.20,  0.20,  0.20,  0.20,  0.20,  0.20,  0.20,  0.20
! <Site:GroundReflectance:SnowModifier>, Normal, Daylighting {dimensionless}
 Site:GroundReflectance:SnowModifier,   1.000,   1.000
! <Site:GroundReflectance:Snow>, Months From Jan to Dec {dimensionless}
 Site:GroundReflectance:Snow,  0.20,  0.20,  0.20,  0.20,  0.20,  0.20,  0.20,  0.20,  0.20,  0.20,  0.20,  0.20
! <Site:GroundReflectance:Snow:Daylighting>, Months From Jan to Dec {dimensionless}
 Site:GroundReflectance:Snow:Daylighting,  0.20,  0.20,  0.20,  0.20,  0.20,  0.20,  0.20,  0.20,  0.20,  0.20,  0.20,  0.20
! <Environment:Weather Station>,Wind Sensor Height Above Ground {m},Wind Speed Profile Exponent {},Wind Speed Profile Boundary Layer Thickness {m},Air Temperature Sensor Height Above Ground {m},Wind Speed Modifier Coefficient [Internal],Temperature Modifier Coefficient [Internal]
Environment:Weather Station,10.000,0.140,270.000,1.500,1.586,9.750E-003
! <Site:Location>, Location Name, Latitude {N+/S- Deg}, Longitude {E+/W- Deg},  Time Zone Number {GMT+/-}, Elevation {m},  Standard Pressure at Elevation {Pa}, Standard RhoAir at Elevation
Site:Location,San Francisco Intl Ap CA USA TMY3 WMO#=724940,37.62,-122.40,-8.00,2.00,101301,1.2040
! <Building Information>, Building Name,North Axis {deg},Terrain,  Loads Convergence Tolerance Value,Temperature Convergence Tolerance Value,  Solar Distribution,Maximum Number of Warmup Days,Minimum Number of Warmup Days
 Building Information,NoeValleyWFM.idf,356.173,City,4.00000E-002,0.40000,FullInteriorAndExteriorWithReflectionsFromExteriorSurfaces,25,6
! <Inside Convection Algorithm>, Algorithm {Simple | TARP | CeilingDiffuser | AdaptiveConvectionAlgorithm}
Inside Convection Algorithm,TARP
! <Outside Convection Algorithm>, Algorithm {SimpleCombined | TARP | MoWitt | DOE-2 | AdaptiveConvectionAlgorithm}
Outside Convection Algorithm,TARP
! <Sky Radiance Distribution>, Value {Anisotropic}
Sky Radiance Distribution,Anisotropic
! <Zone Air Solution Algorithm>, Value {ThirdOrderBackwardDifference | AnalyticalSolution | EulerMethod}
 Zone Air Solution Algorithm, ThirdOrderBackwardDifference
! <Zone Air Carbon Dioxide Balance Simulation>, Simulation {Yes/No}, Carbon Dioxide Concentration
 Zone Air Carbon Dioxide Balance Simulation, No,N/A
! <Zone Air Generic Contaminant Balance Simulation>, Simulation {Yes/No}, Generic Contaminant Concentration
 Zone Air Generic Contaminant Balance Simulation, No,N/A
! <Zone Air Mass Flow Balance Simulation>, Enforce Mass Balance, Adjust Zone Mixing, Adjust Zone Infiltration {AddInfiltration | AdjustInfiltration | None}, Infiltration Zones {MixingSourceZonesOnly | AllZones}
 Zone Air Mass Flow Balance Simulation, No,N/A,N/A,N/A
! <Environment:Site Atmospheric Variation>,Wind Speed Profile Exponent {},Wind Speed Profile Boundary Layer Thickness {m},Air Temperature Gradient Coefficient {K/m}
Environment:Site Atmospheric Variation,0.330,460.000,6.500000E-003
! <SurfaceGeometry>,Starting Corner,Vertex Input Direction,Coordinate System,Daylight Reference Point Coordinate System,Rectangular (Simple) Surface Coordinate System
 Surface Geometry,UpperLeftCorner,Counterclockwise,RelativeCoordinateSystem,RelativeCoordinateSystem,RelativeToZoneOrigin
! <ShadingProperty Reflectance>,Shading Surface Name,Shading Type,Diffuse Solar Reflectance, Diffuse Visible Reflectance,Surface Glazing Fraction,Surface Glazing Contruction
ShadingProperty Reflectance,SHDSRF_0_0_72A5EF2A-73A7-4162-9C31-FAC3CC83EB51_0,Detached Shading:Building,0.20,0.20,0.00, N/A
ShadingProperty Reflectance,Mir-SHDSRF_0_0_72A5EF2A-73A7-4162-9C31-FAC3CC83EB51_0,Detached Shading:Building,0.20,0.20,0.00, N/A
ShadingProperty Reflectance,SHDSRF_0_1_25CD6946-3B73-454B-B006-F32DF2BA2361_0,Detached Shading:Building,0.20,0.20,0.00, N/A
ShadingProperty Reflectance,Mir-SHDSRF_0_1_25CD6946-3B73-454B-B006-F32DF2BA2361_0,Detached Shading:Building,0.20,0.20,0.00, N/A
ShadingProperty Reflectance,SHDSRF_0_2_6FFCF9BA-3C2A-4A29-83E1-9AF43B9DE787_0,Detached Shading:Building,0.20,0.20,0.00, N/A
ShadingProperty Reflectance,Mir-SHDSRF_0_2_6FFCF9BA-3C2A-4A29-83E1-9AF43B9DE787_0,Detached Shading:Building,0.20,0.20,0.00, N/A
ShadingProperty Reflectance,SHDSRF_0_3_333F4C93-0168-4B1D-B116-3A4016CAD0C0_0,Detached Shading:Building,0.20,0.20,0.00, N/A
ShadingProperty Reflectance,Mir-SHDSRF_0_3_333F4C93-0168-4B1D-B116-3A4016CAD0C0_0,Detached Shading:Building,0.20,0.20,0.00, N/A
ShadingProperty Reflectance,SHDSRF_0_4_9CB1BA02-091D-4806-84B9-6197DE226494_0,Detached Shading:Building,0.20,0.20,0.00, N/A
ShadingProperty Reflectance,Mir-SHDSRF_0_4_9CB1BA02-091D-4806-84B9-6197DE226494_0,Detached Shading:Building,0.20,0.20,0.00, N/A
ShadingProperty Reflectance,SHDSRF_0_5_E6903062-ECAD-40FC-9215-FA969E03394A_0,Detached Shading:Building,0.20,0.20,0.00, N/A
ShadingProperty Reflectance,Mir-SHDSRF_0_5_E6903062-ECAD-40FC-9215-FA969E03394A_0,Detached Shading:Building,0.20,0.20,0.00, N/A
ShadingProperty Reflectance,SHDSRF_1_0_B5210075-5A1F-4BC3-B65E-D06DAAD5A4D3_0,Detached Shading:Building,0.20,0.20,0.00, N/A
ShadingProperty Reflectance,Mir-SHDSRF_1_0_B5210075-5A1F-4BC3-B65E-D06DAAD5A4D3_0,Detached Shading:Building,0.20,0.20,0.00, N/A
ShadingProperty Reflectance,SHDSRF_1_1_662AE12E-7210-40FE-9D5B-8DA330F1CFC2_0,Detached Shading:Building,0.20,0.20,0.00, N/A
ShadingProperty Reflectance,Mir-SHDSRF_1_1_662AE12E-7210-40FE-9D5B-8DA330F1CFC2_0,Detached Shading:Building,0.20,0.20,0.00, N/A
ShadingProperty Reflectance,SHDSRF_1_2_B5F19BC4-56EA-495A-B5B6-FE55D88A9138_0,Detached Shading:Building,0.20,0.20,0.00, N/A
ShadingProperty Reflectance,Mir-SHDSRF_1_2_B5F19BC4-56EA-495A-B5B6-FE55D88A9138_0,Detached Shading:Building,0.20,0.20,0.00, N/A
ShadingProperty Reflectance,SHDSRF_1_3_DEAFC0DB-1F8D-4665-85E2-932DC4F22A3A_0,Detached Shading:Building,0.20,0.20,0.00, N/A
ShadingProperty Reflectance,Mir-SHDSRF_1_3_DEAFC0DB-1F8D-4665-85E2-932DC4F22A3A_0,Detached Shading:Building,0.20,0.20,0.00, N/A
ShadingProperty Reflectance,SHDSRF_1_4_2CFB744E-DA5E-4DB5-8FE0-D63129E8D2E8_0,Detached Shading:Building,0.20,0.20,0.00, N/A
ShadingProperty Reflectance,Mir-SHDSRF_1_4_2CFB744E-DA5E-4DB5-8FE0-D63129E8D2E8_0,Detached Shading:Building,0.20,0.20,0.00, N/A
ShadingProperty Reflectance,SHDSRF_1_5_01E48C73-9E74-4C87-9301-8EE9B3361F06_0,Detached Shading:Building,0.20,0.20,0.00, N/A
ShadingProperty Reflectance,Mir-SHDSRF_1_5_01E48C73-9E74-4C87-9301-8EE9B3361F06_0,Detached Shading:Building,0.20,0.20,0.00, N/A
ShadingProperty Reflectance,SHDSRF_2_0_0ABA8F36-BDA8-4D16-8D77-F71BAEFFA87A_0,Detached Shading:Building,0.20,0.20,0.00, N/A
ShadingProperty Reflectance,Mir-SHDSRF_2_0_0ABA8F36-BDA8-4D16-8D77-F71BAEFFA87A_0,Detached Shading:Building,0.20,0.20,0.00, N/A
ShadingProperty Reflectance,SHDSRF_3_0_3811AEFF-3ADA-41CF-B549-8533029945C4_0,Detached Shading:Building,0.20,0.20,0.00, N/A
ShadingProperty Reflectance,Mir-SHDSRF_3_0_3811AEFF-3ADA-41CF-B549-8533029945C4_0,Detached Shading:Building,0.20,0.20,0.00, N/A
ShadingProperty Reflectance,SHDSRF_4_0_149C876C-3610-453F-9362-0AE3EA507164_0,Detached Shading:Building,0.20,0.20,0.00, N/A
ShadingProperty Reflectance,Mir-SHDSRF_4_0_149C876C-3610-453F-9362-0AE3EA507164_0,Detached Shading:Building,0.20,0.20,0.00, N/A
ShadingProperty Reflectance,OVERHANG_DOOR_1,Detached Shading:Building,0.20,0.20,0.00, N/A
ShadingProperty Reflectance,Mir-OVERHANG_DOOR_1,Detached Shading:Building,0.20,0.20,0.00, N/A
ShadingProperty Reflectance,OVERHANG_DOOR_2,Detached Shading:Building,0.20,0.20,0.00, N/A
ShadingProperty Reflectance,Mir-OVERHANG_DOOR_2,Detached Shading:Building,0.20,0.20,0.00, N/A
ShadingProperty Reflectance,OVERHANG_1,Detached Shading:Building,0.20,0.20,0.00, N/A
ShadingProperty Reflectance,Mir-OVERHANG_1,Detached Shading:Building,0.20,0.20,0.00, N/A
ShadingProperty Reflectance,OVERHANG_2,Detached Shading:Building,0.20,0.20,0.00, N/A
ShadingProperty Reflectance,Mir-OVERHANG_2,Detached Shading:Building,0.20,0.20,0.00, N/A
! <Surface Heat Transfer Algorithm>, Value {CTF - ConductionTransferFunction | EMPD - MoisturePenetrationDepthConductionTransferFunction | CondFD - ConductionFiniteDifference | HAMT - CombinedHeatAndMoistureFiniteElement} - Description,Inside Surface Max Temperature Limit{C}, Surface Convection Coefficient Lower Limit {W/m2-K}, Surface Convection Coefficient Upper Limit {W/m2-K}
Surface Heat Transfer Algorithm, CTF - ConductionTransferFunction,200,0.10,1000.0
! <Shading Summary>, Number of Fixed Detached Shades, Number of Building Detached Shades, Number of Attached Shades
 Shading Summary,0,38,0
! <Zone Summary>, Number of Zones, Number of Zone Surfaces, Number of SubSurfaces
 Zone Summary,138,1277,5
! <Zone Information>,Zone Name,North Axis {deg},Origin X-Coordinate {m},Origin Y-Coordinate {m},Origin Z-Coordinate {m},Centroid X-Coordinate {m},Centroid Y-Coordinate {m},Centroid Z-Coordinate {m},Type,Zone Multiplier,Zone List Multiplier,Minimum X {m},Maximum X {m},Minimum Y {m},Maximum Y {m},Minimum Z {m},Maximum Z {m},Ceiling Height {m},Volume {m3},Zone Inside Convection Algorithm {Simple-Detailed-CeilingDiffuser-TrombeWall},Zone Outside Convection Algorithm {Simple-Detailed-Tarp-MoWitt-DOE-2-BLAST}, Floor Area {m2},Exterior Gross Wall Area {m2},Exterior Net Wall Area {m2},Exterior Window Area {m2}, Number of Surfaces, Number of SubSurfaces, Number of Shading SubSurfaces,  Part of Total Building Area
 Zone Information, L1-101-ENTRANCEEXIT THERMAL ZONE,0.0,0.00,0.00,0.00,52.74,30.00,1.07,1,1,1,50.27,55.20,29.30,30.70,0.00,2.13,2.13,11.14,TARP,TARP,5.22,10.39,5.10,5.28,7,1,0,Yes
 Zone Information, L1-101-SALESAISLE1 THERMAL ZONE,0.0,0.00,0.00,0.00,45.65,51.84,1.07,1,1,1,44.44,46.86,46.88,56.80,0.00,2.13,2.13,37.03,TARP,TARP,17.35,0.00,0.00,0.00,6,0,0,Yes
 Zone Information, L1-101-SALESAISLE10 THERMAL ZONE,0.0,0.00,0.00,0.00,64.05,48.41,1.07,1,1,1,62.60,65.49,39.64,57.19,0.00,2.13,2.13,64.46,TARP,TARP,30.21,0.00,0.00,0.00,12,0,0,Yes
 Zone Information, L1-101-SALESAISLE2 THERMAL ZONE,0.0,0.00,0.00,0.00,47.36,51.36,1.07,1,1,1,46.21,48.52,45.82,56.90,0.00,2.13,2.13,37.05,TARP,TARP,17.36,0.00,0.00,0.00,7,0,0,Yes
 Zone Information, L1-101-SALESAISLE3 THERMAL ZONE,0.0,0.00,0.00,0.00,48.91,51.46,1.07,1,1,1,47.78,50.04,45.92,57.00,0.00,2.13,2.13,35.95,TARP,TARP,16.85,0.00,0.00,0.00,7,0,0,Yes
 Zone Information, L1-101-SALESAISLE4 THERMAL ZONE,0.0,0.00,0.00,0.00,50.67,47.52,1.07,1,1,1,49.34,52.00,38.33,56.71,0.00,2.13,2.13,56.54,TARP,TARP,26.50,0.00,0.00,0.00,7,0,0,Yes
 Zone Information, L1-101-SALESAISLE5 THERMAL ZONE,0.0,0.00,0.00,0.00,52.21,47.62,1.07,1,1,1,50.78,53.64,38.43,56.82,0.00,2.13,2.13,64.33,TARP,TARP,30.14,0.00,0.00,0.00,6,0,0,Yes
 Zone Information, L1-101-SALESAISLE6 THERMAL ZONE,0.0,0.00,0.00,0.00,53.90,47.74,1.07,1,1,1,52.42,55.39,38.54,56.94,0.00,2.13,2.13,68.35,TARP,TARP,32.03,0.00,0.00,0.00,6,0,0,Yes
 Zone Information, L1-101-SALESAISLE7 THERMAL ZONE,0.0,0.00,0.00,0.00,55.60,47.85,1.07,1,1,1,54.16,57.03,38.65,57.05,0.00,2.13,2.13,64.44,TARP,TARP,30.20,0.00,0.00,0.00,6,0,0,Yes
 Zone Information, L1-101-SALESAISLE8 THERMAL ZONE,0.0,0.00,0.00,0.00,57.29,47.96,1.07,1,1,1,55.81,58.77,38.76,57.16,0.00,2.13,2.13,68.31,TARP,TARP,32.01,0.00,0.00,0.00,11,0,0,Yes
 Zone Information, L1-101-SALESAISLE9 THERMAL ZONE,0.0,0.00,0.00,0.00,62.19,45.06,1.07,1,1,1,60.62,63.77,39.48,50.65,0.00,2.13,2.13,56.88,TARP,TARP,26.66,0.00,0.00,0.00,10,0,0,Yes
 Zone Information, L1-101-SALESAISLEBULK THERMAL ZONE,0.0,0.00,0.00,0.00,43.65,51.71,1.07,1,1,1,42.19,45.10,46.73,56.68,0.00,2.13,2.13,47.25,TARP,TARP,22.14,0.00,0.00,0.00,7,0,0,Yes
 Zone Information, L1-101-SALESCIRCULATION1 THERMAL ZONE,0.0,0.00,0.00,0.00,51.89,32.46,1.07,1,1,1,50.19,53.89,30.37,35.02,0.00,2.13,2.13,28.55,TARP,TARP,13.38,0.00,0.00,0.00,9,0,0,Yes
 Zone Information, L1-101-SALESCIRCULATION10 THERMAL ZONE,0.0,0.00,0.00,0.00,71.15,34.30,1.07,1,1,1,68.19,75.21,31.59,36.46,0.00,2.13,2.13,38.48,TARP,TARP,18.03,0.00,0.00,0.00,9,0,0,Yes
 Zone Information, L1-101-SALESCIRCULATION2 THERMAL ZONE,0.0,0.00,0.00,0.00,58.71,37.45,1.07,1,1,1,50.56,64.20,34.83,39.57,0.00,2.13,2.13,97.53,TARP,TARP,45.70,0.00,0.00,0.00,20,0,0,Yes
 Zone Information, L1-101-SALESCIRCULATION3 THERMAL ZONE,0.0,0.00,0.00,0.00,45.88,58.57,1.07,1,1,1,42.07,49.31,56.53,61.07,0.00,2.13,2.13,37.11,TARP,TARP,17.39,0.00,0.00,0.00,13,0,0,Yes
 Zone Information, L1-101-SALESCIRCULATION4 THERMAL ZONE,0.0,0.00,0.00,0.00,61.38,58.92,1.07,1,1,1,49.15,70.48,56.61,63.16,0.00,2.13,2.13,107.73,TARP,TARP,50.48,0.00,0.00,0.00,30,0,0,Yes
 Zone Information, L1-101-SALESCIRCULATION5 THERMAL ZONE,0.0,0.00,0.00,0.00,71.73,53.19,1.07,1,1,1,69.11,74.39,46.47,58.58,0.00,2.13,2.13,85.00,TARP,TARP,39.83,0.00,0.00,0.00,18,0,0,Yes
 Zone Information, L1-101-SALESCIRCULATION6 THERMAL ZONE,0.0,0.00,0.00,0.00,66.84,51.64,1.07,1,1,1,64.45,70.15,46.05,55.70,0.00,2.13,2.13,54.75,TARP,TARP,25.65,0.00,0.00,0.00,10,0,0,Yes
 Zone Information, L1-101-SALESCIRCULATION7 THERMAL ZONE,0.0,0.00,0.00,0.00,65.46,40.27,1.07,1,1,1,64.08,66.88,35.73,46.13,0.00,2.13,2.13,35.21,TARP,TARP,16.50,0.00,0.00,0.00,12,0,0,Yes
 Zone Information, L1-101-SALESCIRCULATION8 THERMAL ZONE,0.0,0.00,0.00,0.00,74.11,42.97,1.07,1,1,1,73.34,74.88,39.26,46.67,0.00,2.13,2.13,16.43,TARP,TARP,7.70,0.00,0.00,0.00,7,0,0,Yes
 Zone Information, L1-101-SALESCIRCULATION9 THERMAL ZONE,0.0,0.00,0.00,0.00,70.88,37.62,1.07,1,1,1,66.69,75.07,35.91,39.33,0.00,2.13,2.13,50.46,TARP,TARP,23.65,0.00,0.00,0.00,8,0,0,Yes
 Zone Information, L1-101-SALESCIRCULATIONMEATSEAFOOD THERMAL ZONE,0.0,0.00,0.00,0.00,56.80,61.07,1.07,1,1,1,50.55,61.58,59.51,62.58,0.00,2.13,2.13,43.47,TARP,TARP,20.37,0.00,0.00,0.00,9,0,0,Yes
 Zone Information, L1-101-SALESREFRIGERATIONAISLE1 THERMAL ZONE,0.0,0.00,0.00,0.00,60.00,40.19,1.07,1,1,1,58.61,61.39,38.88,41.50,0.00,2.13,2.13,13.67,TARP,TARP,6.40,0.00,0.00,0.00,7,0,0,Yes
 Zone Information, L1-101-SALESREFRIGERATIONAISLE2 THERMAL ZONE,0.0,0.00,0.00,0.00,59.79,43.34,1.07,1,1,1,58.35,61.22,41.32,45.36,0.00,2.13,2.13,21.62,TARP,TARP,10.13,0.00,0.00,0.00,6,0,0,Yes
 Zone Information, L1-101-SALESREFRIGERATIONAISLE3 THERMAL ZONE,0.0,0.00,0.00,0.00,59.53,47.24,1.07,1,1,1,58.09,60.96,45.18,49.29,0.00,2.13,2.13,22.01,TARP,TARP,10.31,0.00,0.00,0.00,6,0,0,Yes
 Zone Information, L1-101-SALESREFRIGERATIONAISLE4 THERMAL ZONE,0.0,0.00,0.00,0.00,59.27,51.14,1.07,1,1,1,57.83,60.70,49.12,53.16,0.00,2.13,2.13,21.63,TARP,TARP,10.14,0.00,0.00,0.00,7,0,0,Yes
 Zone Information, L1-101-SALESREFRIGERATIONAISLE5 THERMAL ZONE,0.0,0.00,0.00,0.00,59.00,55.16,1.07,1,1,1,57.55,60.44,52.98,57.34,0.00,2.13,2.13,23.41,TARP,TARP,10.97,0.00,0.00,0.00,9,0,0,Yes
 Zone Information, L1-101-SALESREFRIGERATIONAISLE6 THERMAL ZONE,0.0,0.00,0.00,0.00,61.48,55.75,1.07,1,1,1,60.19,62.77,54.42,57.07,0.00,2.13,2.13,12.88,TARP,TARP,6.04,0.00,0.00,0.00,7,0,0,Yes
 Zone Information, L1-101-SALESREFRIGERATIONAISLE7 THERMAL ZONE,0.0,0.00,0.00,0.00,61.69,52.53,1.07,1,1,1,60.36,63.03,50.49,54.58,0.00,2.13,2.13,20.31,TARP,TARP,9.52,0.00,0.00,0.00,7,0,0,Yes
 Zone Information, L1-101-SALESREFRIGERATIONENDCAP1 THERMAL ZONE,0.0,0.00,0.00,0.00,57.77,58.09,1.07,1,1,1,56.77,58.76,57.12,59.06,0.00,2.13,2.13,7.31,TARP,TARP,3.43,0.00,0.00,0.00,7,0,0,Yes
 Zone Information, L1-101-SALESREFRIGERATIONENDCAP2 THERMAL ZONE,0.0,0.00,0.00,0.00,62.32,57.94,1.07,1,1,1,61.29,63.35,56.99,58.88,0.00,2.13,2.13,7.35,TARP,TARP,3.44,0.00,0.00,0.00,7,0,0,Yes
 Zone Information, L1-101-SALESREFRIGERATIONENDCAP3 THERMAL ZONE,0.0,0.00,0.00,0.00,63.67,38.63,1.07,1,1,1,62.69,64.65,37.56,39.69,0.00,2.13,2.13,7.86,TARP,TARP,3.68,0.00,0.00,0.00,8,0,0,Yes
 Zone Information, L1-101-SALESREFRIGERATIONREACHINBEER THERMAL ZONE,0.0,0.00,0.00,0.00,65.18,61.65,1.07,1,1,1,61.42,68.95,60.24,63.07,0.00,2.13,2.13,37.00,TARP,TARP,17.34,0.00,0.00,0.00,6,0,0,Yes
 Zone Information, L1-101-SALESREFRIGERATIONREACHINBEVERAGES THERMAL ZONE,0.0,0.00,0.00,0.00,76.21,36.90,1.07,1,1,1,74.88,77.55,34.31,39.49,0.00,2.13,2.13,25.13,TARP,TARP,11.77,10.75,10.75,0.00,7,0,0,Yes
 Zone Information, L1-101-SALESREFRIGERATIONREACHINCHEES THERMAL ZONE,0.0,0.00,0.00,0.00,75.20,52.11,1.07,1,1,1,73.84,76.56,49.14,55.07,0.00,2.13,2.13,28.89,TARP,TARP,13.54,12.36,12.36,0.00,6,0,0,Yes
 Zone Information, L1-101-SALESREFRIGERATIONREACHINDAIRY1 THERMAL ZONE,0.0,0.00,0.00,0.00,41.33,50.24,1.07,1,1,1,39.81,42.85,46.56,53.91,0.00,2.13,2.13,39.30,TARP,TARP,18.42,0.00,0.00,0.00,6,0,0,Yes
 Zone Information, L1-101-SALESREFRIGERATIONREACHINDAIRY2 THERMAL ZONE,0.0,0.00,0.00,0.00,40.85,56.65,1.07,1,1,1,39.45,42.37,53.74,59.32,0.00,2.13,2.13,28.60,TARP,TARP,13.40,0.00,0.00,0.00,8,0,0,Yes
 Zone Information, L1-101-SALESREFRIGERATIONREACHINDAIRY3 THERMAL ZONE,0.0,0.00,0.00,0.00,43.08,59.69,1.07,1,1,1,40.49,45.72,58.41,60.99,0.00,2.13,2.13,23.84,TARP,TARP,11.17,0.00,0.00,0.00,8,0,0,Yes
 Zone Information, L1-101-SALESREFRIGERATIONREACHINMEATSUBSTITUTES THERMAL ZONE,0.0,0.00,0.00,0.00,48.67,60.56,1.07,1,1,1,46.68,50.67,59.25,61.88,0.00,2.13,2.13,19.48,TARP,TARP,9.13,0.00,0.00,0.00,9,0,0,Yes
 Zone Information, L1-101-SALESREFRIGERATIONREACHINPREPARED THERMAL ZONE,0.0,0.00,0.00,0.00,75.72,44.31,1.07,1,1,1,74.22,77.21,39.33,49.30,0.00,2.13,2.13,49.04,TARP,TARP,22.98,20.98,20.98,0.00,7,0,0,Yes
 Zone Information, L1-101-SALESWINE THERMAL ZONE,0.0,0.00,0.00,0.00,66.75,57.30,1.07,1,1,1,64.21,69.29,55.33,59.27,0.00,2.13,2.13,37.51,TARP,TARP,17.58,0.00,0.00,0.00,8,0,0,Yes
 Zone Information, L1-102-CHECKOUT1 THERMAL ZONE,0.0,0.00,0.00,0.00,56.86,33.37,1.07,1,1,1,55.66,58.07,31.45,35.30,0.00,2.13,2.13,17.17,TARP,TARP,8.05,0.00,0.00,0.00,6,0,0,Yes
 Zone Information, L1-102-CHECKOUT2 THERMAL ZONE,0.0,0.00,0.00,0.00,59.02,33.52,1.07,1,1,1,57.82,60.23,31.59,35.45,0.00,2.13,2.13,17.17,TARP,TARP,8.05,0.00,0.00,0.00,6,0,0,Yes
 Zone Information, L1-102-CHECKOUT3 THERMAL ZONE,0.0,0.00,0.00,0.00,61.18,33.66,1.07,1,1,1,59.98,62.39,31.74,35.59,0.00,2.13,2.13,17.17,TARP,TARP,8.05,0.00,0.00,0.00,6,0,0,Yes
 Zone Information, L1-102-CHECKOUT4 THERMAL ZONE,0.0,0.00,0.00,0.00,63.29,33.80,1.07,1,1,1,62.14,64.45,31.88,35.73,0.00,2.13,2.13,16.44,TARP,TARP,7.71,0.00,0.00,0.00,6,0,0,Yes
 Zone Information, L1-102-CHECKOUTBAGGING THERMAL ZONE,0.0,0.00,0.00,0.00,60.42,30.89,1.07,1,1,1,53.84,67.31,29.63,32.02,0.00,2.13,2.13,43.52,TARP,TARP,20.40,25.89,5.81,20.08,14,1,0,Yes
 Zone Information, L1-102-EXIT THERMAL ZONE,0.0,0.00,0.00,0.00,68.60,31.06,1.07,1,1,1,67.24,69.95,30.44,31.68,0.00,2.13,2.13,6.06,TARP,TARP,2.84,5.66,1.88,3.77,7,1,0,Yes
 Zone Information, L1-102-RECEIVINGOFFICE THERMAL ZONE,0.0,0.00,0.00,0.00,41.04,34.72,1.07,1,1,1,39.76,42.32,33.05,36.39,0.00,2.13,2.13,16.00,TARP,TARP,7.50,0.00,0.00,0.00,7,0,0,Yes
 Zone Information, L1-102-SELFCHECKOUT THERMAL ZONE,0.0,0.00,0.00,0.00,66.34,33.66,1.07,1,1,1,64.20,68.48,31.32,36.00,0.00,2.13,2.13,37.62,TARP,TARP,17.63,0.00,0.00,0.00,9,0,0,Yes
 Zone Information, L1-103-FLORAL THERMAL ZONE,0.0,0.00,0.00,0.00,54.75,33.23,1.07,1,1,1,53.59,55.91,31.31,35.16,0.00,2.13,2.13,16.45,TARP,TARP,7.71,0.00,0.00,0.00,6,0,0,Yes
 Zone Information, L1-104-PRODUCE THERMAL ZONE,0.0,0.00,0.00,0.00,47.47,39.96,1.07,1,1,1,44.18,51.01,31.24,46.02,0.00,2.13,2.13,176.79,TARP,TARP,82.84,0.00,0.00,0.00,13,0,0,Yes
 Zone Information, L1-104-PRODUCECIRCULATION THERMAL ZONE,0.0,0.00,0.00,0.00,43.65,45.69,1.07,1,1,1,40.29,47.01,44.37,47.00,0.00,2.13,2.13,30.83,TARP,TARP,14.45,0.00,0.00,0.00,11,0,0,Yes
 Zone Information, L1-104-PRODUCECOOLERS1 THERMAL ZONE,0.0,0.00,0.00,0.00,47.06,30.22,1.07,1,1,1,44.05,50.35,28.89,31.58,0.00,2.13,2.13,29.24,TARP,TARP,13.70,13.29,13.29,0.00,8,0,0,Yes
 Zone Information, L1-104-PRODUCECOOLERS2 THERMAL ZONE,0.0,0.00,0.00,0.00,43.60,33.69,1.07,1,1,1,42.04,45.08,30.12,37.64,0.00,2.13,2.13,39.97,TARP,TARP,18.73,0.00,0.00,0.00,9,0,0,Yes
 Zone Information, L1-104-PRODUCECOOLERS3 THERMAL ZONE,0.0,0.00,0.00,0.00,43.11,41.04,1.07,1,1,1,41.57,44.65,37.46,44.62,0.00,2.13,2.13,39.10,TARP,TARP,18.32,0.00,0.00,0.00,7,0,0,Yes
 Zone Information, L1-106-RECEIVING THERMAL ZONE,0.0,0.00,0.00,0.00,38.81,32.41,1.07,1,1,1,35.90,41.33,28.37,36.23,0.00,2.13,2.13,72.93,TARP,TARP,34.18,26.78,26.78,0.00,9,0,0,Yes
 Zone Information, L1-106-RECEIVINGTRANSFORMERS2 THERMAL ZONE,0.0,0.00,0.00,0.00,41.82,30.95,1.07,1,1,1,41.03,42.62,28.70,33.21,0.00,2.13,2.13,12.25,TARP,TARP,5.74,2.76,2.76,0.00,7,0,0,Yes
 Zone Information, L1-108-PRODUCECOOLER THERMAL ZONE,0.0,0.00,0.00,0.00,39.78,39.85,1.07,1,1,1,37.46,42.11,36.11,43.59,0.00,2.13,2.13,64.40,TARP,TARP,30.18,0.00,0.00,0.00,8,0,0,Yes
 Zone Information, L1-109-CORRIDOR THERMAL ZONE,0.0,0.00,0.00,0.00,36.68,39.64,1.07,1,1,1,35.42,37.94,35.97,43.31,0.00,2.13,2.13,31.46,TARP,TARP,14.74,15.41,15.41,0.00,6,0,0,Yes
 Zone Information, L1-110-PRODUCEPREP THERMAL ZONE,0.0,0.00,0.00,0.00,38.51,47.53,1.07,1,1,1,34.73,41.63,43.18,53.74,0.00,2.13,2.13,113.35,TARP,TARP,53.12,21.86,21.86,0.00,12,0,0,Yes
 Zone Information, L1-111-GROCERYFREEZER THERMAL ZONE,0.0,0.00,0.00,0.00,35.83,58.81,1.07,1,1,1,34.01,37.63,53.40,64.41,0.00,2.13,2.13,58.90,TARP,TARP,27.60,29.88,29.88,0.00,9,0,0,Yes
 Zone Information, L1-112-DAIRYCOOLER THERMAL ZONE,0.0,0.00,0.00,0.00,38.75,59.03,1.07,1,1,1,37.19,40.57,53.59,64.61,0.00,2.13,2.13,59.39,TARP,TARP,27.83,6.49,6.49,0.00,11,0,0,Yes
 Zone Information, L1-113-BEERCAGE THERMAL ZONE,0.0,0.00,0.00,0.00,41.34,62.70,1.07,1,1,1,40.22,42.46,60.65,64.74,0.00,2.13,2.13,16.75,TARP,TARP,7.85,4.22,4.22,0.00,6,0,0,Yes
 Zone Information, L1-114-BACKSTOCK THERMAL ZONE,0.0,0.00,0.00,0.00,44.45,62.91,1.07,1,1,1,42.19,46.72,60.78,65.03,0.00,2.13,2.13,36.16,TARP,TARP,16.94,9.11,9.11,0.00,8,0,0,Yes
 Zone Information, L1-115-MEATSEAFOODCOOLER THERMAL ZONE,0.0,0.00,0.00,0.00,48.48,63.45,1.07,1,1,1,46.45,50.51,61.62,65.29,0.00,2.13,2.13,27.98,TARP,TARP,13.11,8.20,8.20,0.00,6,0,0,Yes
 Zone Information, L1-116-MEATSERVICE THERMAL ZONE,0.0,0.00,0.00,0.00,53.51,63.51,1.07,1,1,1,50.28,56.74,61.32,65.70,0.00,2.13,2.13,52.62,TARP,TARP,24.66,13.25,13.25,0.00,7,0,0,Yes
 Zone Information, L1-117-SEAFOODSURFACE THERMAL ZONE,0.0,0.00,0.00,0.00,59.21,63.66,1.07,1,1,1,56.48,61.42,61.74,66.01,0.00,2.13,2.13,39.00,TARP,TARP,18.28,10.08,10.08,0.00,8,0,0,Yes
 Zone Information, L1-118-PREPAREDFOODSPREP THERMAL ZONE,0.0,0.00,0.00,0.00,67.27,64.70,1.07,1,1,1,61.19,73.36,62.58,66.81,0.00,2.13,2.13,87.93,TARP,TARP,41.20,25.53,25.53,0.00,9,0,0,Yes
 Zone Information, L1-119-DELICOOLER THERMAL ZONE,0.0,0.00,0.00,0.00,74.37,65.17,1.07,1,1,1,73.13,75.60,63.38,66.96,0.00,2.13,2.13,16.54,TARP,TARP,7.75,12.15,12.15,0.00,7,0,0,Yes
 Zone Information, L1-120-WOMEN THERMAL ZONE,0.0,0.00,0.00,0.00,71.40,62.18,1.07,1,1,1,70.16,72.64,61.05,63.32,0.00,2.13,2.13,10.62,TARP,TARP,4.98,0.00,0.00,0.00,6,0,0,Yes
 Zone Information, L1-121-MEN THERMAL ZONE,0.0,0.00,0.00,0.00,71.56,59.81,1.07,1,1,1,70.30,72.82,58.42,61.20,0.00,2.13,2.13,13.19,TARP,TARP,6.18,0.00,0.00,0.00,6,0,0,Yes
 Zone Information, L1-122-CORRIDOR THERMAL ZONE,0.0,0.00,0.00,0.00,73.61,59.94,1.07,1,1,1,72.50,74.73,56.44,63.44,0.00,2.13,2.13,26.01,TARP,TARP,12.19,0.00,0.00,0.00,9,0,0,Yes
 Zone Information, L1-123-STAIRS THERMAL ZONE,0.0,0.00,0.00,0.00,74.74,58.56,1.07,1,1,1,72.96,76.17,54.86,63.53,0.00,2.13,2.13,30.21,TARP,TARP,14.16,18.08,18.08,0.00,9,0,0,Yes
 Zone Information, L1-124-SPECIALTYSERVICE THERMAL ZONE,0.0,0.00,0.00,0.00,69.12,50.17,1.07,1,1,1,66.38,71.40,46.17,53.26,0.00,2.13,2.13,65.05,TARP,TARP,30.48,0.00,0.00,0.00,9,0,0,Yes
 Zone Information, L1-125-PREPAREDFOODS1 THERMAL ZONE,0.0,0.00,0.00,0.00,69.90,44.50,1.07,1,1,1,66.20,73.59,42.39,46.60,0.00,2.13,2.13,57.30,TARP,TARP,26.85,0.00,0.00,0.00,8,0,0,Yes
 Zone Information, L1-125-PREPAREDFOODS2 THERMAL ZONE,0.0,0.00,0.00,0.00,70.14,40.82,1.07,1,1,1,66.45,73.83,38.78,42.86,0.00,2.13,2.13,55.19,TARP,TARP,25.86,0.00,0.00,0.00,6,0,0,Yes
 Zone Information, L1-126-BAKERYSERVICE THERMAL ZONE,0.0,0.00,0.00,0.00,74.94,32.62,1.07,1,1,1,72.11,77.77,30.77,34.46,0.00,2.13,2.13,38.73,TARP,TARP,18.15,18.73,18.73,0.00,7,0,0,Yes
 Zone Information, L1-127-COFFEE THERMAL ZONE,0.0,0.00,0.00,0.00,71.03,32.36,1.07,1,1,1,69.73,72.33,30.62,34.10,0.00,2.13,2.13,16.96,TARP,TARP,7.95,5.09,5.09,0.00,7,0,0,Yes
 Zone Information, L1-SHAFT THERMAL ZONE,0.0,0.00,0.00,0.00,43.33,29.51,1.07,1,1,1,42.53,44.14,28.79,30.23,0.00,2.13,2.13,4.36,TARP,TARP,2.04,3.25,3.25,0.00,6,0,0,Yes
 Zone Information, L1-STAIRS THERMAL ZONE,0.0,0.00,0.00,0.00,36.80,55.60,1.07,1,1,1,35.98,37.62,53.50,57.70,0.00,2.13,2.13,12.05,TARP,TARP,5.64,0.00,0.00,0.00,6,0,0,Yes
 Zone Information, L1S1-BACKSTOCK THERMAL ZONE,0.0,0.00,0.00,0.00,44.45,62.91,2.48,1,1,1,42.19,46.72,60.78,65.03,2.13,2.82,0.69,11.61,TARP,TARP,16.94,5.05,5.05,0.00,8,0,0,Yes
 Zone Information, L1S1-BEERCAGE THERMAL ZONE,0.0,0.00,0.00,0.00,41.34,62.70,2.48,1,1,1,40.22,42.46,60.65,64.74,2.13,2.82,0.69,5.38,TARP,TARP,7.85,1.35,1.35,0.00,6,0,0,Yes
 Zone Information, L1S1-CHECKOUT THERMAL ZONE,0.0,0.00,0.00,0.00,59.26,32.31,2.48,1,1,1,50.19,69.95,29.30,36.00,2.13,2.82,0.69,67.83,TARP,TARP,99.02,13.46,4.79,8.67,20,1,0,Yes
 Zone Information, L1S1-COFFEE THERMAL ZONE,0.0,0.00,0.00,0.00,72.74,33.25,2.48,1,1,1,68.19,77.77,30.62,36.46,2.13,2.82,0.69,30.23,TARP,TARP,44.13,7.65,7.65,0.00,12,0,0,Yes
 Zone Information, L1S1-CORRIDOR THERMAL ZONE,0.0,0.00,0.00,0.00,73.61,59.94,2.48,1,1,1,72.50,74.73,56.44,63.44,2.13,2.82,0.69,8.35,TARP,TARP,12.19,0.00,0.00,0.00,9,0,0,Yes
 Zone Information, L1S1-DAIRYCOOLER THERMAL ZONE,0.0,0.00,0.00,0.00,38.74,58.91,2.48,1,1,1,37.19,40.57,53.59,64.61,2.13,2.82,0.69,19.06,TARP,TARP,27.83,2.08,2.08,0.00,11,0,0,Yes
 Zone Information, L1S1-DELICOOLER THERMAL ZONE,0.0,0.00,0.00,0.00,74.37,65.17,2.48,1,1,1,73.13,75.60,63.38,66.96,2.13,2.82,0.69,5.31,TARP,TARP,7.75,3.90,3.90,0.00,7,0,0,Yes
 Zone Information, L1S1-LOADING THERMAL ZONE,0.0,0.00,0.00,0.00,38.42,46.27,2.48,1,1,1,34.01,42.62,28.37,64.41,2.13,2.82,0.69,122.41,TARP,TARP,178.70,31.04,31.04,0.00,19,0,0,Yes
 Zone Information, L1S1-MEATSEAFOODCOOLER THERMAL ZONE,0.0,0.00,0.00,0.00,48.48,63.45,2.48,1,1,1,46.45,50.51,61.62,65.29,2.13,2.82,0.69,8.98,TARP,TARP,13.11,4.97,4.97,0.00,6,0,0,Yes
 Zone Information, L1S1-MEN THERMAL ZONE,0.0,0.00,0.00,0.00,71.56,59.81,2.48,1,1,1,70.30,72.82,58.42,61.20,2.13,2.82,0.69,4.23,TARP,TARP,6.18,1.61,1.61,0.00,6,0,0,Yes
 Zone Information, L1S1-PREPAREDFOODS THERMAL ZONE,0.0,0.00,0.00,0.00,70.63,41.29,2.48,1,1,1,66.20,75.07,35.91,46.67,2.13,2.82,0.69,57.58,TARP,TARP,84.06,0.90,0.90,0.00,10,0,0,Yes
 Zone Information, L1S1-PREPAREDFOODSPREP THERMAL ZONE,0.0,0.00,0.00,0.00,67.27,64.70,2.48,1,1,1,61.19,73.36,62.58,66.81,2.13,2.82,0.69,28.22,TARP,TARP,41.20,8.20,8.20,0.00,9,0,0,Yes
 Zone Information, L1S1-PRODUCE THERMAL ZONE,0.0,0.00,0.00,0.00,45.84,38.62,2.48,1,1,1,40.29,51.01,28.89,47.00,2.13,2.82,0.69,101.41,TARP,TARP,148.04,9.55,9.55,0.00,22,0,0,Yes
 Zone Information, L1S1-SALESAISLE1 THERMAL ZONE,0.0,0.00,0.00,0.00,46.28,50.82,2.48,1,1,1,42.19,50.04,45.82,57.00,2.13,2.82,0.69,50.49,TARP,TARP,73.70,0.00,0.00,0.00,11,0,0,Yes
 Zone Information, L1S1-SALESAISLE4 THERMAL ZONE,0.0,0.00,0.00,0.00,54.06,47.75,2.48,1,1,1,49.34,58.77,38.33,57.16,2.13,2.82,0.69,103.35,TARP,TARP,150.88,18.19,18.19,0.00,10,0,0,Yes
 Zone Information, L1S1-SALESNORTH THERMAL ZONE,0.0,0.00,0.00,0.00,56.20,59.57,2.48,1,1,1,40.49,70.48,56.53,63.16,2.13,2.82,0.69,90.94,TARP,TARP,132.75,0.00,0.00,0.00,34,0,0,Yes
 Zone Information, L1S1-SALESREFRIGERATIONAISLE6 THERMAL ZONE,0.0,0.00,0.00,0.00,61.34,48.23,2.48,1,1,1,57.55,65.49,38.88,57.34,2.13,2.82,0.69,82.45,TARP,TARP,120.37,0.00,0.00,0.00,18,0,0,Yes
 Zone Information, L1S1-SALESREFRIGERATIONREACHINDAIRY2 THERMAL ZONE,0.0,0.00,0.00,0.00,41.10,53.38,2.48,1,1,1,39.45,42.85,46.56,59.32,2.13,2.82,0.69,21.80,TARP,TARP,31.82,0.00,0.00,0.00,10,0,0,Yes
 Zone Information, L1S1-SALESREFRIGERATIONREACHPREPARED THERMAL ZONE,0.0,0.00,0.00,0.00,75.69,44.69,2.48,1,1,1,73.84,77.55,34.31,55.07,2.13,2.82,0.69,33.08,TARP,TARP,48.29,14.15,14.15,0.00,10,0,0,Yes
 Zone Information, L1S1-SALESSOUTH THERMAL ZONE,0.0,0.00,0.00,0.00,61.00,39.05,2.48,1,1,1,50.56,66.88,34.83,46.13,2.13,2.82,0.69,45.13,TARP,TARP,65.88,0.00,0.00,0.00,12,0,0,Yes
 Zone Information, L1S1-SEAFOODSURFACE THERMAL ZONE,0.0,0.00,0.00,0.00,56.57,63.44,2.48,1,1,1,50.28,61.42,61.32,66.01,2.13,2.82,0.69,29.41,TARP,TARP,42.93,7.49,7.49,0.00,9,0,0,Yes
 Zone Information, L1S1-SHAFT THERMAL ZONE,0.0,0.00,0.00,0.00,43.33,29.51,2.48,1,1,1,42.53,44.14,28.79,30.23,2.13,2.82,0.69,1.40,TARP,TARP,2.04,1.04,1.04,0.00,6,0,0,Yes
 Zone Information, L1S1-SPECIALTYSERVICE THERMAL ZONE,0.0,0.00,0.00,0.00,69.63,53.66,2.48,1,1,1,64.21,74.39,46.05,59.27,2.13,2.82,0.69,77.78,TARP,TARP,113.55,7.65,7.65,0.00,16,0,0,Yes
 Zone Information, L1S1-STAIRS THERMAL ZONE,0.0,0.00,0.00,0.00,74.62,58.46,2.48,1,1,1,72.96,76.17,54.86,63.53,2.13,2.82,0.69,9.70,TARP,TARP,14.16,5.80,5.80,0.00,9,0,0,Yes
 Zone Information, L1S1-WOMEN THERMAL ZONE,0.0,0.00,0.00,0.00,71.40,62.18,2.48,1,1,1,70.16,72.64,61.05,63.32,2.13,2.82,0.69,3.41,TARP,TARP,4.98,0.00,0.00,0.00,6,0,0,Yes
 Zone Information, L1S2-AISLESEAST THERMAL ZONE,0.0,0.00,0.00,0.00,62.77,46.38,3.62,1,1,1,49.48,75.07,34.83,55.96,2.82,5.72,1.82,881.56,TARP,TARP,476.04,0.48,0.48,0.00,15,0,0,Yes
 Zone Information, L1S2-AISLESWEST THERMAL ZONE,0.0,0.00,0.00,0.00,45.71,40.27,3.51,1,1,1,39.81,51.01,28.89,54.39,2.82,4.89,1.39,208.95,TARP,TARP,221.47,17.02,17.02,0.00,18,0,0,Yes
 Zone Information, L1S2-BAKERY THERMAL ZONE,0.0,0.00,0.00,0.00,72.39,33.34,3.19,1,1,1,68.19,77.77,30.62,36.46,2.82,4.11,0.65,48.26,TARP,TARP,44.13,4.99,4.99,0.00,10,0,0,Yes
 Zone Information, L1S2-CHECKOUT THERMAL ZONE,0.0,0.00,0.00,0.00,59.43,32.22,3.83,1,1,1,50.19,69.95,29.30,36.00,2.82,5.72,2.14,209.07,TARP,TARP,99.02,58.44,46.54,11.90,16,1,0,Yes
 Zone Information, L1S2-LOADINGBOH THERMAL ZONE,0.0,0.00,0.00,0.00,39.43,42.19,3.10,1,1,1,34.73,42.62,28.37,53.74,2.82,3.69,0.44,155.99,TARP,TARP,145.45,9.39,9.39,0.00,9,0,0,Yes
 Zone Information, L1S2-REACHINPREPARED THERMAL ZONE,0.0,0.00,0.00,0.00,75.61,44.68,2.91,1,1,1,73.84,77.55,34.31,55.07,2.82,3.15,0.16,7.90,TARP,TARP,48.29,0.00,0.00,0.00,6,0,0,Yes
 Zone Information, L1S2-SHAFT THERMAL ZONE,0.0,0.00,0.00,0.00,43.36,29.51,3.31,1,1,1,42.53,44.14,28.79,30.23,2.82,3.90,0.98,1.99,TARP,TARP,2.04,1.49,1.49,0.00,6,0,0,Yes
 Zone Information, L1S2-SHAFT2 THERMAL ZONE,0.0,0.00,0.00,0.00,74.42,55.51,2.94,1,1,1,72.99,76.17,54.86,56.17,2.82,3.25,0.22,0.75,TARP,TARP,3.41,0.00,0.00,0.00,6,0,0,Yes
 Zone Information, L2-201-CORRIDOR THERMAL ZONE,0.0,0.00,0.00,0.00,38.34,58.18,7.54,1,1,1,34.41,42.28,57.51,58.85,5.72,9.37,3.66,23.55,TARP,TARP,6.44,31.66,31.66,0.00,7,0,0,Yes
 Zone Information, L2-201-EXGSTORAGE THERMAL ZONE,0.0,0.00,0.00,0.00,53.59,63.98,7.54,1,1,1,47.26,59.12,62.56,65.21,5.72,9.37,3.66,75.11,TARP,TARP,20.53,43.87,43.87,0.00,7,0,0,Yes
 Zone Information, L2-201-STAIRS1 THERMAL ZONE,0.0,0.00,0.00,0.00,36.04,55.55,7.54,1,1,1,34.46,37.62,53.40,57.70,5.72,9.37,3.66,43.58,TARP,TARP,11.91,25.64,25.64,0.00,6,0,0,Yes
 Zone Information, L2-201-STORAGE THERMAL ZONE,0.0,0.00,0.00,0.00,48.44,57.83,7.54,1,1,1,37.35,61.99,53.59,64.44,5.72,9.37,3.66,421.63,TARP,TARP,115.26,116.87,116.87,0.00,11,0,0,Yes
 Zone Information, L2-201-WALKINS THERMAL ZONE,0.0,0.00,0.00,0.00,56.71,60.82,7.54,1,1,1,49.24,63.29,57.44,64.89,5.72,9.37,3.66,249.98,TARP,TARP,68.34,20.04,20.04,0.00,9,0,0,Yes
 Zone Information, L2-205-REFRIGERATIONEQUIPMENTROOMLOWER THERMAL ZONE,0.0,0.00,0.00,0.00,64.80,58.34,7.54,1,1,1,61.71,68.24,55.22,61.35,5.72,9.37,3.66,116.59,TARP,TARP,31.87,41.18,41.18,0.00,9,0,0,Yes
 Zone Information, L2-205-REFRIGERATIONEQUIPMENTROOMUPPER THERMAL ZONE,0.0,0.00,0.00,0.00,72.00,58.37,7.54,1,1,1,67.91,76.10,55.64,61.09,5.72,9.37,3.66,142.17,TARP,TARP,38.87,75.66,75.66,0.00,6,0,0,Yes
 Zone Information, M-123-STAIRS THERMAL ZONE,0.0,0.00,0.00,0.00,74.86,63.81,4.27,1,1,1,73.93,75.79,60.66,66.96,2.82,5.72,2.90,26.00,TARP,TARP,8.98,22.19,22.19,0.00,7,0,0,Yes
 Zone Information, M-151-STAIRS1 THERMAL ZONE,0.0,0.00,0.00,0.00,36.04,55.55,4.27,1,1,1,34.46,37.62,53.40,57.70,2.82,5.72,2.90,34.50,TARP,TARP,11.91,20.30,20.30,0.00,7,0,0,Yes
 Zone Information, M-152-MDF THERMAL ZONE,0.0,0.00,0.00,0.00,44.28,63.00,4.27,1,1,1,42.42,46.09,61.08,64.99,2.82,5.72,2.90,36.61,TARP,TARP,12.64,9.93,9.93,0.00,7,0,0,Yes
 Zone Information, M-153-CASHROOM THERMAL ZONE,0.0,0.00,0.00,0.00,40.18,55.51,4.27,1,1,1,38.82,41.54,53.69,57.32,2.82,5.72,2.90,25.03,TARP,TARP,8.65,7.21,7.21,0.00,8,0,0,Yes
 Zone Information, M-154-EXGOFFICE THERMAL ZONE,0.0,0.00,0.00,0.00,42.48,55.66,4.27,1,1,1,41.31,43.66,53.86,57.46,2.82,5.72,2.90,21.35,TARP,TARP,7.37,6.15,6.15,0.00,7,0,0,Yes
 Zone Information, M-155-EXGOFFICE THERMAL ZONE,0.0,0.00,0.00,0.00,44.69,55.81,4.27,1,1,1,43.42,45.96,54.00,57.62,2.82,5.72,2.90,23.19,TARP,TARP,8.01,6.68,6.68,0.00,7,0,0,Yes
 Zone Information, M-156-STLOFFICE THERMAL ZONE,0.0,0.00,0.00,0.00,48.34,56.05,4.27,1,1,1,45.72,50.96,54.15,57.95,2.82,5.72,2.90,50.43,TARP,TARP,17.42,14.52,14.52,0.00,8,0,0,Yes
 Zone Information, M-157-EXGOFFICE THERMAL ZONE,0.0,0.00,0.00,0.00,52.83,56.35,4.27,1,1,1,50.73,54.94,54.49,58.22,2.82,5.72,2.90,40.13,TARP,TARP,13.86,11.55,11.55,0.00,7,0,0,Yes
 Zone Information, M-158-BREAKROOM THERMAL ZONE,0.0,0.00,0.00,0.00,56.60,56.60,4.31,1,1,1,54.71,58.55,54.75,58.46,2.82,5.72,2.90,36.44,TARP,TARP,12.58,10.49,10.49,0.00,9,0,0,Yes
 Zone Information, M-159-EXGVEST THERMAL ZONE,0.0,0.00,0.00,0.00,59.24,57.72,4.27,1,1,1,58.32,60.17,56.86,58.58,2.82,5.72,2.90,8.12,TARP,TARP,2.80,0.00,0.00,0.00,6,0,0,Yes
 Zone Information, M-161-MEN THERMAL ZONE,0.0,0.00,0.00,0.00,61.57,57.87,4.27,1,1,1,60.06,63.08,56.97,58.77,2.82,5.72,2.90,13.57,TARP,TARP,4.69,0.00,0.00,0.00,6,0,0,Yes
 Zone Information, M-162-PREPROOM THERMAL ZONE,0.0,0.00,0.00,0.00,65.64,59.51,4.27,1,1,1,62.87,68.08,55.30,63.84,2.82,5.72,2.90,78.80,TARP,TARP,27.21,9.27,9.27,0.00,15,0,0,Yes
 Zone Information, M-163-MEATPREP THERMAL ZONE,0.0,0.00,0.00,0.00,70.11,63.45,4.27,1,1,1,66.05,74.35,60.21,66.87,2.82,5.72,2.90,125.02,TARP,TARP,43.17,16.11,16.11,0.00,10,0,0,Yes
 Zone Information, M-164-MEATCOOLER THERMAL ZONE,0.0,0.00,0.00,0.00,72.06,58.20,4.27,1,1,1,68.02,76.10,55.65,60.76,2.82,5.72,2.90,103.74,TARP,TARP,35.84,35.20,35.20,0.00,10,0,0,Yes
 Zone Information, M-201-EXGSTORAGE THERMAL ZONE,0.0,0.00,0.00,0.00,47.17,60.77,4.27,1,1,1,34.01,68.38,53.59,66.50,2.82,5.72,2.90,629.77,TARP,TARP,217.46,113.40,113.40,0.00,26,0,0,Yes
 Zone Information, M-BAKERYFREEZER THERMAL ZONE,0.0,0.00,0.00,0.00,67.24,57.45,4.27,1,1,1,66.14,68.33,55.52,59.38,2.82,5.72,2.90,20.97,TARP,TARP,7.24,5.61,5.61,0.00,7,0,0,Yes
 Zone Information, M-EXGWOMEN THERMAL ZONE,0.0,0.00,0.00,0.00,60.81,56.08,4.27,1,1,1,58.43,63.20,54.99,57.17,2.82,5.72,2.90,25.18,TARP,TARP,8.69,13.49,13.49,0.00,8,0,0,Yes
! <Zone Internal Gains/Equipment Information - Nominal>,Zone Name, Floor Area {m2},# Occupants,Area per Occupant {m2/person},Occupant per Area {person/m2},Interior Lighting {W/m2},Electric Load {W/m2},Gas Load {W/m2},Other Load {W/m2},Hot Water Eq {W/m2},Steam Equipment {W/m2},Sum Loads per Area {W/m2},Outdoor Controlled Baseboard Heat
 Zone Internal Gains, L1-101-ENTRANCEEXIT THERMAL ZONE,5.22,1.9,2.787,0.359,0.000,0.000,0.000,0.000,0.000,0.000,0.000,No
 Zone Internal Gains, L1-101-SALESAISLE1 THERMAL ZONE,17.35,3.1,5.574,0.179,0.000,0.000,0.000,0.000,0.000,0.000,0.000,No
 Zone Internal Gains, L1-101-SALESAISLE10 THERMAL ZONE,30.21,5.4,5.574,0.179,0.000,0.000,0.000,0.000,0.000,0.000,0.000,No
 Zone Internal Gains, L1-101-SALESAISLE2 THERMAL ZONE,17.36,3.1,5.574,0.179,0.000,0.000,0.000,0.000,0.000,0.000,0.000,No
 Zone Internal Gains, L1-101-SALESAISLE3 THERMAL ZONE,16.85,3.0,5.574,0.179,0.000,0.000,0.000,0.000,0.000,0.000,0.000,No
 Zone Internal Gains, L1-101-SALESAISLE4 THERMAL ZONE,26.50,4.8,5.574,0.179,0.000,0.000,0.000,0.000,0.000,0.000,0.000,No
 Zone Internal Gains, L1-101-SALESAISLE5 THERMAL ZONE,30.14,5.4,5.574,0.179,0.000,0.000,0.000,0.000,0.000,0.000,0.000,No
 Zone Internal Gains, L1-101-SALESAISLE6 THERMAL ZONE,32.03,5.7,5.574,0.179,0.000,0.000,0.000,0.000,0.000,0.000,0.000,No
 Zone Internal Gains, L1-101-SALESAISLE7 THERMAL ZONE,30.20,5.4,5.574,0.179,0.000,0.000,0.000,0.000,0.000,0.000,0.000,No
 Zone Internal Gains, L1-101-SALESAISLE8 THERMAL ZONE,32.01,5.7,5.574,0.179,0.000,0.000,0.000,0.000,0.000,0.000,0.000,No
 Zone Internal Gains, L1-101-SALESAISLE9 THERMAL ZONE,26.66,4.8,5.574,0.179,0.000,0.000,0.000,0.000,0.000,0.000,0.000,No
 Zone Internal Gains, L1-101-SALESAISLEBULK THERMAL ZONE,22.14,4.0,5.574,0.179,0.000,281.809,0.000,0.000,0.000,0.000,281.809,No
 Zone Internal Gains, L1-101-SALESCIRCULATION1 THERMAL ZONE,13.38,4.8,2.787,0.359,0.000,0.000,0.000,0.000,0.000,0.000,0.000,No
 Zone Internal Gains, L1-101-SALESCIRCULATION10 THERMAL ZONE,18.03,6.5,2.787,0.359,0.000,0.000,0.000,0.000,0.000,0.000,0.000,No
 Zone Internal Gains, L1-101-SALESCIRCULATION2 THERMAL ZONE,45.70,16.4,2.787,0.359,0.000,0.000,0.000,0.000,0.000,0.000,0.000,No
 Zone Internal Gains, L1-101-SALESCIRCULATION3 THERMAL ZONE,17.39,6.2,2.787,0.359,0.000,0.000,0.000,0.000,0.000,0.000,0.000,No
 Zone Internal Gains, L1-101-SALESCIRCULATION4 THERMAL ZONE,50.48,18.1,2.787,0.359,0.000,0.000,0.000,0.000,0.000,0.000,0.000,No
 Zone Internal Gains, L1-101-SALESCIRCULATION5 THERMAL ZONE,39.83,14.3,2.787,0.359,0.000,0.000,0.000,0.000,0.000,0.000,0.000,No
 Zone Internal Gains, L1-101-SALESCIRCULATION6 THERMAL ZONE,25.65,9.2,2.787,0.359,0.000,0.000,0.000,0.000,0.000,0.000,0.000,No
 Zone Internal Gains, L1-101-SALESCIRCULATION7 THERMAL ZONE,16.50,5.9,2.787,0.359,0.000,0.000,0.000,0.000,0.000,0.000,0.000,No
 Zone Internal Gains, L1-101-SALESCIRCULATION8 THERMAL ZONE,7.70,2.8,2.787,0.359,0.000,0.000,0.000,0.000,0.000,0.000,0.000,No
 Zone Internal Gains, L1-101-SALESCIRCULATION9 THERMAL ZONE,23.65,8.5,2.787,0.359,0.000,0.000,0.000,0.000,0.000,0.000,0.000,No
 Zone Internal Gains, L1-101-SALESCIRCULATIONMEATSEAFOOD THERMAL ZONE,20.37,7.3,2.787,0.359,0.000,0.000,0.000,0.000,0.000,0.000,0.000,No
 Zone Internal Gains, L1-101-SALESREFRIGERATIONAISLE1 THERMAL ZONE,6.40,1.1,5.574,0.179,0.000,0.000,0.000,0.000,0.000,0.000,0.000,No
 Zone Internal Gains, L1-101-SALESREFRIGERATIONAISLE2 THERMAL ZONE,10.13,1.8,5.574,0.179,0.000,0.000,0.000,0.000,0.000,0.000,0.000,No
 Zone Internal Gains, L1-101-SALESREFRIGERATIONAISLE3 THERMAL ZONE,10.31,1.9,5.574,0.179,0.000,0.000,0.000,0.000,0.000,0.000,0.000,No
 Zone Internal Gains, L1-101-SALESREFRIGERATIONAISLE4 THERMAL ZONE,10.14,1.8,5.574,0.179,0.000,0.000,0.000,0.000,0.000,0.000,0.000,No
 Zone Internal Gains, L1-101-SALESREFRIGERATIONAISLE5 THERMAL ZONE,10.97,2.0,5.574,0.179,0.000,0.000,0.000,0.000,0.000,0.000,0.000,No
 Zone Internal Gains, L1-101-SALESREFRIGERATIONAISLE6 THERMAL ZONE,6.04,1.1,5.574,0.179,0.000,0.000,0.000,0.000,0.000,0.000,0.000,No
 Zone Internal Gains, L1-101-SALESREFRIGERATIONAISLE7 THERMAL ZONE,9.52,1.7,5.574,0.179,0.000,0.000,0.000,0.000,0.000,0.000,0.000,No
 Zone Internal Gains, L1-101-SALESREFRIGERATIONENDCAP1 THERMAL ZONE,3.43,0.6,5.574,0.179,0.000,0.000,0.000,0.000,0.000,0.000,0.000,No
 Zone Internal Gains, L1-101-SALESREFRIGERATIONENDCAP2 THERMAL ZONE,3.44,0.6,5.574,0.179,0.000,0.000,0.000,0.000,0.000,0.000,0.000,No
 Zone Internal Gains, L1-101-SALESREFRIGERATIONENDCAP3 THERMAL ZONE,3.68,0.7,5.574,0.179,0.000,0.000,0.000,0.000,0.000,0.000,0.000,No
 Zone Internal Gains, L1-101-SALESREFRIGERATIONREACHINBEER THERMAL ZONE,17.34,3.1,5.574,0.179,0.000,0.000,0.000,0.000,0.000,0.000,0.000,No
 Zone Internal Gains, L1-101-SALESREFRIGERATIONREACHINBEVERAGES THERMAL ZONE,11.77,2.1,5.574,0.179,0.000,0.000,0.000,0.000,0.000,0.000,0.000,No
 Zone Internal Gains, L1-101-SALESREFRIGERATIONREACHINCHEES THERMAL ZONE,13.54,2.4,5.574,0.179,0.000,0.000,0.000,0.000,0.000,0.000,0.000,No
 Zone Internal Gains, L1-101-SALESREFRIGERATIONREACHINDAIRY1 THERMAL ZONE,18.42,3.3,5.574,0.179,0.000,0.000,0.000,0.000,0.000,0.000,0.000,No
 Zone Internal Gains, L1-101-SALESREFRIGERATIONREACHINDAIRY2 THERMAL ZONE,13.40,2.4,5.574,0.179,0.000,0.000,0.000,0.000,0.000,0.000,0.000,No
 Zone Internal Gains, L1-101-SALESREFRIGERATIONREACHINDAIRY3 THERMAL ZONE,11.17,2.0,5.574,0.179,0.000,0.000,0.000,0.000,0.000,0.000,0.000,No
 Zone Internal Gains, L1-101-SALESREFRIGERATIONREACHINMEATSUBSTITUTES THERMAL ZONE,9.13,1.6,5.574,0.179,0.000,0.000,0.000,0.000,0.000,0.000,0.000,No
 Zone Internal Gains, L1-101-SALESREFRIGERATIONREACHINPREPARED THERMAL ZONE,22.98,4.1,5.574,0.179,0.000,0.000,0.000,0.000,0.000,0.000,0.000,No
 Zone Internal Gains, L1-101-SALESWINE THERMAL ZONE,17.58,6.3,2.787,0.359,0.000,0.000,0.000,0.000,0.000,0.000,0.000,No
 Zone Internal Gains, L1-102-CHECKOUT1 THERMAL ZONE,8.05,2.9,2.787,0.359,0.000,99.405,0.000,0.000,0.000,0.000,99.405,No
 Zone Internal Gains, L1-102-CHECKOUT2 THERMAL ZONE,8.05,2.9,2.787,0.359,0.000,99.405,0.000,0.000,0.000,0.000,99.405,No
 Zone Internal Gains, L1-102-CHECKOUT3 THERMAL ZONE,8.05,2.9,2.787,0.359,0.000,99.405,0.000,0.000,0.000,0.000,99.405,No
 Zone Internal Gains, L1-102-CHECKOUT4 THERMAL ZONE,7.71,2.8,2.787,0.359,0.000,103.818,0.000,0.000,0.000,0.000,103.818,No
 Zone Internal Gains, L1-102-CHECKOUTBAGGING THERMAL ZONE,20.40,0.0,N/A,0.000,0.000,0.000,0.000,0.000,0.000,0.000,0.000,No
 Zone Internal Gains, L1-102-EXIT THERMAL ZONE,2.84,1.0,2.787,0.359,0.000,0.000,0.000,0.000,0.000,0.000,0.000,No
 Zone Internal Gains, L1-102-RECEIVINGOFFICE THERMAL ZONE,7.50,0.8,9.289,0.108,17.073,0.000,0.000,0.000,0.000,0.000,17.073,No
 Zone Internal Gains, L1-102-SELFCHECKOUT THERMAL ZONE,17.63,6.3,2.787,0.359,0.000,113.449,0.000,0.000,0.000,0.000,113.449,No
 Zone Internal Gains, L1-103-FLORAL THERMAL ZONE,7.71,2.8,2.787,0.359,0.000,51.884,0.000,0.000,0.000,0.000,51.884,No
 Zone Internal Gains, L1-104-PRODUCE THERMAL ZONE,82.84,29.7,2.787,0.359,0.000,0.000,0.000,0.000,0.000,0.000,0.000,No
 Zone Internal Gains, L1-104-PRODUCECIRCULATION THERMAL ZONE,14.45,0.0,N/A,0.000,0.000,0.000,0.000,0.000,0.000,0.000,0.000,No
 Zone Internal Gains, L1-104-PRODUCECOOLERS1 THERMAL ZONE,13.70,2.5,5.574,0.179,0.000,0.000,0.000,0.000,0.000,0.000,0.000,No
 Zone Internal Gains, L1-104-PRODUCECOOLERS2 THERMAL ZONE,18.73,3.4,5.574,0.179,0.000,0.000,0.000,0.000,0.000,0.000,0.000,No
 Zone Internal Gains, L1-104-PRODUCECOOLERS3 THERMAL ZONE,18.32,3.3,5.574,0.179,0.000,0.000,0.000,0.000,0.000,0.000,0.000,No
 Zone Internal Gains, L1-106-RECEIVING THERMAL ZONE,34.18,3.7,9.289,0.108,0.000,0.000,0.000,0.000,0.000,0.000,0.000,No
 Zone Internal Gains, L1-106-RECEIVINGTRANSFORMERS2 THERMAL ZONE,5.74,0.0,N/A,0.000,0.000,2032.364,0.000,0.000,0.000,0.000,2032.364,No
 Zone Internal Gains, L1-108-PRODUCECOOLER THERMAL ZONE,30.18,1.0,30.934,3.233E-002,8.483,0.000,0.000,0.000,0.000,0.000,8.483,No
 Zone Internal Gains, L1-109-CORRIDOR THERMAL ZONE,14.74,1.6,9.289,0.108,0.000,0.000,0.000,0.000,0.000,0.000,0.000,No
 Zone Internal Gains, L1-110-PRODUCEPREP THERMAL ZONE,53.12,2.9,18.579,5.382E-002,0.000,51.942,0.000,0.000,0.000,0.000,51.942,No
 Zone Internal Gains, L1-111-GROCERYFREEZER THERMAL ZONE,27.60,0.0,N/A,0.000,4.637,0.000,0.000,0.000,0.000,0.000,4.637,No
 Zone Internal Gains, L1-112-DAIRYCOOLER THERMAL ZONE,27.83,0.9,30.934,3.233E-002,0.000,0.000,0.000,0.000,0.000,0.000,0.000,No
 Zone Internal Gains, L1-113-BEERCAGE THERMAL ZONE,7.85,0.3,30.934,3.233E-002,0.000,0.000,0.000,0.000,0.000,0.000,0.000,No
 Zone Internal Gains, L1-114-BACKSTOCK THERMAL ZONE,16.94,0.5,30.934,3.233E-002,0.000,0.000,0.000,0.000,0.000,0.000,0.000,No
 Zone Internal Gains, L1-115-MEATSEAFOODCOOLER THERMAL ZONE,13.11,2.8,4.723,0.212,0.000,0.000,0.000,0.000,0.000,0.000,0.000,No
 Zone Internal Gains, L1-116-MEATSERVICE THERMAL ZONE,24.66,2.7,9.289,0.108,0.000,190.623,0.000,0.000,0.000,0.000,190.623,No
 Zone Internal Gains, L1-117-SEAFOODSURFACE THERMAL ZONE,18.28,2.0,9.289,0.108,0.000,148.289,0.000,0.000,0.000,0.000,148.289,No
 Zone Internal Gains, L1-118-PREPAREDFOODSPREP THERMAL ZONE,41.20,2.2,18.579,5.382E-002,0.000,1006.528,0.000,0.000,0.000,0.000,1006.528,No
 Zone Internal Gains, L1-119-DELICOOLER THERMAL ZONE,7.75,1.6,4.723,0.212,0.000,0.000,0.000,0.000,0.000,0.000,0.000,No
 Zone Internal Gains, L1-120-WOMEN THERMAL ZONE,4.98,0.0,N/A,0.000,0.000,0.000,0.000,0.000,0.000,0.000,0.000,No
 Zone Internal Gains, L1-121-MEN THERMAL ZONE,6.18,0.0,N/A,0.000,10.353,0.000,0.000,0.000,0.000,0.000,10.353,No
 Zone Internal Gains, L1-122-CORRIDOR THERMAL ZONE,12.19,0.0,N/A,0.000,0.000,0.000,0.000,0.000,0.000,0.000,0.000,No
 Zone Internal Gains, L1-123-STAIRS THERMAL ZONE,14.16,0.0,N/A,0.000,0.000,0.000,0.000,0.000,0.000,0.000,0.000,No
 Zone Internal Gains, L1-124-SPECIALTYSERVICE THERMAL ZONE,30.48,3.3,9.289,0.108,0.000,63.638,0.000,0.000,0.000,0.000,63.638,No
 Zone Internal Gains, L1-125-PREPAREDFOODS1 THERMAL ZONE,26.85,0.0,N/A,0.000,0.000,37.169,0.000,0.000,0.000,0.000,37.169,No
 Zone Internal Gains, L1-125-PREPAREDFOODS2 THERMAL ZONE,25.86,0.0,N/A,0.000,0.000,416.596,0.000,0.000,0.000,0.000,416.596,No
 Zone Internal Gains, L1-126-BAKERYSERVICE THERMAL ZONE,18.15,2.0,9.289,0.108,0.000,827.451,0.000,0.000,0.000,0.000,827.451,No
 Zone Internal Gains, L1-127-COFFEE THERMAL ZONE,7.95,0.9,9.289,0.108,0.000,764.995,0.000,0.000,0.000,0.000,764.995,No
 Zone Internal Gains, L1-SHAFT THERMAL ZONE,2.04,0.0,N/A,0.000,0.000,0.000,0.000,0.000,0.000,0.000,0.000,No
 Zone Internal Gains, L1-STAIRS THERMAL ZONE,5.64,0.0,N/A,0.000,0.000,0.000,0.000,0.000,0.000,0.000,0.000,No
 Zone Internal Gains, L1S1-BACKSTOCK THERMAL ZONE,16.94,0.0,N/A,0.000,7.554,0.000,0.000,0.000,0.000,0.000,7.554,No
 Zone Internal Gains, L1S1-BEERCAGE THERMAL ZONE,7.85,0.0,N/A,0.000,16.304,0.000,0.000,0.000,0.000,0.000,16.304,No
 Zone Internal Gains, L1S1-CHECKOUT THERMAL ZONE,99.02,0.0,N/A,0.000,8.402,0.000,0.000,0.000,0.000,0.000,8.402,No
 Zone Internal Gains, L1S1-COFFEE THERMAL ZONE,44.13,0.0,N/A,0.000,13.121,0.000,0.000,0.000,0.000,0.000,13.121,No
 Zone Internal Gains, L1S1-CORRIDOR THERMAL ZONE,12.19,0.0,N/A,0.000,10.500,0.000,0.000,0.000,0.000,0.000,10.500,No
 Zone Internal Gains, L1S1-DAIRYCOOLER THERMAL ZONE,27.83,0.0,N/A,0.000,9.198,0.000,0.000,0.000,0.000,0.000,9.198,No
 Zone Internal Gains, L1S1-DELICOOLER THERMAL ZONE,7.75,0.0,N/A,0.000,8.255,0.000,0.000,0.000,0.000,0.000,8.255,No
 Zone Internal Gains, L1S1-LOADING THERMAL ZONE,178.70,0.0,N/A,0.000,6.447,0.000,0.000,0.000,0.000,0.000,6.447,No
 Zone Internal Gains, L1S1-MEATSEAFOODCOOLER THERMAL ZONE,13.11,0.0,N/A,0.000,9.761,0.000,0.000,0.000,0.000,0.000,9.761,No
 Zone Internal Gains, L1S1-MEN THERMAL ZONE,6.18,0.0,N/A,0.000,17.147,0.000,0.000,0.000,0.000,0.000,17.147,No
 Zone Internal Gains, L1S1-PREPAREDFOODS THERMAL ZONE,84.06,0.0,N/A,0.000,0.000,0.000,0.000,0.000,0.000,0.000,0.000,No
 Zone Internal Gains, L1S1-PREPAREDFOODSPREP THERMAL ZONE,41.20,0.0,N/A,0.000,11.649,0.000,0.000,0.000,0.000,0.000,11.649,No
 Zone Internal Gains, L1S1-PRODUCE THERMAL ZONE,148.04,0.0,N/A,0.000,0.284,0.000,0.000,0.000,0.000,0.000,0.284,No
 Zone Internal Gains, L1S1-SALESAISLE1 THERMAL ZONE,73.70,0.0,N/A,0.000,3.473,0.000,0.000,0.000,0.000,0.000,3.473,No
 Zone Internal Gains, L1S1-SALESAISLE4 THERMAL ZONE,150.88,0.0,N/A,0.000,2.545,0.000,0.000,0.000,0.000,0.000,2.545,No
 Zone Internal Gains, L1S1-SALESNORTH THERMAL ZONE,132.75,0.0,N/A,0.000,8.000,0.000,0.000,0.000,0.000,0.000,8.000,No
 Zone Internal Gains, L1S1-SALESREFRIGERATIONAISLE6 THERMAL ZONE,120.37,0.0,N/A,0.000,1.063,0.000,0.000,0.000,0.000,0.000,1.063,No
 Zone Internal Gains, L1S1-SALESREFRIGERATIONREACHINDAIRY2 THERMAL ZONE,31.82,0.0,N/A,0.000,5.028,0.000,0.000,0.000,0.000,0.000,5.028,No
 Zone Internal Gains, L1S1-SALESREFRIGERATIONREACHPREPARED THERMAL ZONE,48.29,0.0,N/A,0.000,6.833,0.000,0.000,0.000,0.000,0.000,6.833,No
 Zone Internal Gains, L1S1-SALESSOUTH THERMAL ZONE,65.88,0.0,N/A,0.000,0.000,0.000,0.000,0.000,0.000,0.000,0.000,No
 Zone Internal Gains, L1S1-SEAFOODSURFACE THERMAL ZONE,42.93,0.0,N/A,0.000,18.402,0.000,0.000,0.000,0.000,0.000,18.402,No
 Zone Internal Gains, L1S1-SHAFT THERMAL ZONE,2.04,0.0,N/A,0.000,0.000,0.000,0.000,0.000,0.000,0.000,0.000,No
 Zone Internal Gains, L1S1-SPECIALTYSERVICE THERMAL ZONE,113.55,0.0,N/A,0.000,10.436,0.000,0.000,0.000,0.000,0.000,10.436,No
 Zone Internal Gains, L1S1-STAIRS THERMAL ZONE,14.16,0.0,N/A,0.000,9.043,0.000,0.000,0.000,0.000,0.000,9.043,No
 Zone Internal Gains, L1S1-WOMEN THERMAL ZONE,4.98,0.0,N/A,0.000,8.437,0.000,0.000,0.000,0.000,0.000,8.437,No
 Zone Internal Gains, L1S2-AISLESEAST THERMAL ZONE,476.04,0.0,N/A,0.000,15.509,0.000,0.000,0.000,0.000,0.000,15.509,No
 Zone Internal Gains, L1S2-AISLESWEST THERMAL ZONE,221.47,0.0,N/A,0.000,13.144,0.000,0.000,0.000,0.000,0.000,13.144,No
 Zone Internal Gains, L1S2-BAKERY THERMAL ZONE,44.13,0.0,N/A,0.000,1.586,0.000,0.000,0.000,0.000,0.000,1.586,No
 Zone Internal Gains, L1S2-CHECKOUT THERMAL ZONE,99.02,0.0,N/A,0.000,8.180,0.000,0.000,0.000,0.000,0.000,8.180,No
 Zone Internal Gains, L1S2-LOADINGBOH THERMAL ZONE,145.45,0.0,N/A,0.000,0.000,0.000,0.000,0.000,0.000,0.000,0.000,No
 Zone Internal Gains, L1S2-REACHINPREPARED THERMAL ZONE,48.29,0.0,N/A,0.000,0.000,0.000,0.000,0.000,0.000,0.000,0.000,No
 Zone Internal Gains, L1S2-SHAFT THERMAL ZONE,2.04,0.0,N/A,0.000,0.000,0.000,0.000,0.000,0.000,0.000,0.000,No
 Zone Internal Gains, L1S2-SHAFT2 THERMAL ZONE,3.41,0.0,N/A,0.000,0.000,0.000,0.000,0.000,0.000,0.000,0.000,No
 Zone Internal Gains, L2-201-CORRIDOR THERMAL ZONE,6.44,0.0,N/A,0.000,9.940,0.000,0.000,0.000,0.000,0.000,9.940,No
 Zone Internal Gains, L2-201-EXGSTORAGE THERMAL ZONE,20.53,0.7,30.934,3.233E-002,4.091,0.000,0.000,0.000,0.000,0.000,4.091,No
 Zone Internal Gains, L2-201-STAIRS1 THERMAL ZONE,11.91,0.0,N/A,0.000,5.372,0.000,0.000,0.000,0.000,0.000,5.372,No
 Zone Internal Gains, L2-201-STORAGE THERMAL ZONE,115.26,0.0,N/A,0.000,1.666,0.607,0.000,0.000,0.000,0.000,2.273,No
 Zone Internal Gains, L2-201-WALKINS THERMAL ZONE,68.34,0.0,N/A,0.000,5.619,0.000,0.000,0.000,0.000,0.000,5.619,No
 Zone Internal Gains, L2-205-REFRIGERATIONEQUIPMENTROOMLOWER THERMAL ZONE,31.87,0.0,N/A,0.000,10.040,0.000,0.000,0.000,0.000,0.000,10.040,No
 Zone Internal Gains, L2-205-REFRIGERATIONEQUIPMENTROOMUPPER THERMAL ZONE,38.87,0.0,N/A,0.000,13.173,0.000,0.000,0.000,0.000,0.000,13.173,No
 Zone Internal Gains, M-123-STAIRS THERMAL ZONE,8.98,0.0,N/A,0.000,7.128,0.000,0.000,0.000,0.000,0.000,7.128,No
 Zone Internal Gains, M-151-STAIRS1 THERMAL ZONE,11.91,0.0,N/A,0.000,0.000,0.000,0.000,0.000,0.000,0.000,0.000,No
 Zone Internal Gains, M-152-MDF THERMAL ZONE,12.64,0.0,N/A,0.000,10.125,0.000,0.000,0.000,0.000,0.000,10.125,No
 Zone Internal Gains, M-153-CASHROOM THERMAL ZONE,8.65,0.9,9.289,0.108,14.803,0.000,0.000,0.000,0.000,0.000,14.803,No
 Zone Internal Gains, M-154-EXGOFFICE THERMAL ZONE,7.37,0.8,9.289,0.108,17.363,21.026,0.000,0.000,0.000,0.000,38.389,No
 Zone Internal Gains, M-155-EXGOFFICE THERMAL ZONE,8.01,0.9,9.289,0.108,11.989,19.357,0.000,0.000,0.000,0.000,31.345,No
 Zone Internal Gains, M-156-STLOFFICE THERMAL ZONE,17.42,1.9,9.289,0.108,14.700,29.859,0.000,0.000,0.000,0.000,44.559,No
 Zone Internal Gains, M-157-EXGOFFICE THERMAL ZONE,13.86,1.5,9.289,0.108,0.000,0.000,0.000,0.000,0.000,0.000,0.000,No
 Zone Internal Gains, M-158-BREAKROOM THERMAL ZONE,12.58,1.4,9.289,0.108,5.086,206.631,0.000,0.000,0.000,0.000,211.717,No
 Zone Internal Gains, M-159-EXGVEST THERMAL ZONE,2.80,0.0,N/A,0.000,14.977,0.000,0.000,0.000,0.000,0.000,14.977,No
 Zone Internal Gains, M-161-MEN THERMAL ZONE,4.69,0.0,N/A,0.000,22.614,0.000,0.000,0.000,0.000,0.000,22.614,No
 Zone Internal Gains, M-162-PREPROOM THERMAL ZONE,27.21,1.5,18.579,5.382E-002,7.057,25.580,0.000,0.000,0.000,0.000,32.637,No
 Zone Internal Gains, M-163-MEATPREP THERMAL ZONE,43.17,2.3,18.579,5.382E-002,10.378,135.789,0.000,0.000,0.000,0.000,146.166,No
 Zone Internal Gains, M-164-MEATCOOLER THERMAL ZONE,35.84,1.9,18.579,5.382E-002,10.716,261.192,0.000,0.000,0.000,0.000,271.907,No
 Zone Internal Gains, M-201-EXGSTORAGE THERMAL ZONE,217.46,23.4,9.289,0.108,6.760,8.553,0.000,0.000,0.000,0.000,15.313,No
 Zone Internal Gains, M-BAKERYFREEZER THERMAL ZONE,7.24,0.0,N/A,0.000,8.837,0.000,0.000,0.000,0.000,0.000,8.837,No
 Zone Internal Gains, M-EXGWOMEN THERMAL ZONE,8.69,0.0,N/A,0.000,12.193,0.000,0.000,0.000,0.000,0.000,12.193,No
! <People Internal Gains - Nominal>,Name,Schedule Name,Zone Name,Zone Floor Area {m2},# Zone Occupants,Number of People {},People/Floor Area {person/m2},Floor Area per person {m2/person},Fraction Radiant,Fraction Convected,Sensible Fraction Calculation,Activity level,ASHRAE 55 Warnings,Carbon Dioxide Generation Rate,Nominal Minimum Number of People,Nominal Maximum Number of People
 People Internal Gains, L1-101-ENTRANCEEXIT THERMAL ZONE SALES CIRCULATION,OCCUPANCY_SALES,L1-101-ENTRANCEEXIT THERMAL ZONE,5.22,1.9,1.9,0.359,2.787,0.300,0.700,AutoCalculate,ACTIVITY_SCH,Yes,3.8200E-008,0,2
 People Internal Gains, L1-101-SALESCIRCULATION1 THERMAL ZONE SALES CIRCULATION,OCCUPANCY_SALES,L1-101-SALESCIRCULATION1 THERMAL ZONE,13.38,4.8,4.8,0.359,2.787,0.300,0.700,AutoCalculate,ACTIVITY_SCH,Yes,3.8200E-008,0,5
 People Internal Gains, L1-101-SALESCIRCULATION10 THERMAL ZONE SALES CIRCULATION,OCCUPANCY_SALES,L1-101-SALESCIRCULATION10 THERMAL ZONE,18.03,6.5,6.5,0.359,2.787,0.300,0.700,AutoCalculate,ACTIVITY_SCH,Yes,3.8200E-008,0,6
 People Internal Gains, L1-101-SALESCIRCULATION2 THERMAL ZONE SALES CIRCULATION,OCCUPANCY_SALES,L1-101-SALESCIRCULATION2 THERMAL ZONE,45.70,16.4,16.4,0.359,2.787,0.300,0.700,AutoCalculate,ACTIVITY_SCH,Yes,3.8200E-008,0,16
 People Internal Gains, L1-101-SALESCIRCULATION3 THERMAL ZONE SALES CIRCULATION,OCCUPANCY_SALES,L1-101-SALESCIRCULATION3 THERMAL ZONE,17.39,6.2,6.2,0.359,2.787,0.300,0.700,AutoCalculate,ACTIVITY_SCH,Yes,3.8200E-008,0,6
 People Internal Gains, L1-101-SALESCIRCULATION4 THERMAL ZONE SALES CIRCULATION,OCCUPANCY_SALES,L1-101-SALESCIRCULATION4 THERMAL ZONE,50.48,18.1,18.1,0.359,2.787,0.300,0.700,AutoCalculate,ACTIVITY_SCH,Yes,3.8200E-008,0,18
 People Internal Gains, L1-101-SALESCIRCULATION5 THERMAL ZONE SALES CIRCULATION,OCCUPANCY_SALES,L1-101-SALESCIRCULATION5 THERMAL ZONE,39.83,14.3,14.3,0.359,2.787,0.300,0.700,AutoCalculate,ACTIVITY_SCH,Yes,3.8200E-008,0,14
 People Internal Gains, L1-101-SALESCIRCULATION6 THERMAL ZONE SALES CIRCULATION,OCCUPANCY_SALES,L1-101-SALESCIRCULATION6 THERMAL ZONE,25.65,9.2,9.2,0.359,2.787,0.300,0.700,AutoCalculate,ACTIVITY_SCH,Yes,3.8200E-008,0,9
 People Internal Gains, L1-101-SALESCIRCULATION7 THERMAL ZONE SALES CIRCULATION,OCCUPANCY_SALES,L1-101-SALESCIRCULATION7 THERMAL ZONE,16.50,5.9,5.9,0.359,2.787,0.300,0.700,AutoCalculate,ACTIVITY_SCH,Yes,3.8200E-008,0,6
 People Internal Gains, L1-101-SALESCIRCULATION8 THERMAL ZONE SALES CIRCULATION,OCCUPANCY_SALES,L1-101-SALESCIRCULATION8 THERMAL ZONE,7.70,2.8,2.8,0.359,2.787,0.300,0.700,AutoCalculate,ACTIVITY_SCH,Yes,3.8200E-008,0,3
 People Internal Gains, L1-101-SALESCIRCULATION9 THERMAL ZONE SALES CIRCULATION,OCCUPANCY_SALES,L1-101-SALESCIRCULATION9 THERMAL ZONE,23.65,8.5,8.5,0.359,2.787,0.300,0.700,AutoCalculate,ACTIVITY_SCH,Yes,3.8200E-008,0,8
 People Internal Gains, L1-101-SALESCIRCULATIONMEATSEAFOOD THERMAL ZONE SALES CIRCULATION,OCCUPANCY_SALES,L1-101-SALESCIRCULATIONMEATSEAFOOD THERMAL ZONE,20.37,7.3,7.3,0.359,2.787,0.300,0.700,AutoCalculate,ACTIVITY_SCH,Yes,3.8200E-008,0,7
 People Internal Gains, L1-101-SALESWINE THERMAL ZONE SALES CIRCULATION,OCCUPANCY_SALES,L1-101-SALESWINE THERMAL ZONE,17.58,6.3,6.3,0.359,2.787,0.300,0.700,AutoCalculate,ACTIVITY_SCH,Yes,3.8200E-008,0,6
 People Internal Gains, L1-102-EXIT THERMAL ZONE SALES CIRCULATION,OCCUPANCY_SALES,L1-102-EXIT THERMAL ZONE,2.84,1.0,1.0,0.359,2.787,0.300,0.700,AutoCalculate,ACTIVITY_SCH,Yes,3.8200E-008,0,1
 People Internal Gains, L1-103-FLORAL THERMAL ZONE SALES CIRCULATION,OCCUPANCY_SALES,L1-103-FLORAL THERMAL ZONE,7.71,2.8,2.8,0.359,2.787,0.300,0.700,AutoCalculate,ACTIVITY_SCH,Yes,3.8200E-008,0,3
 People Internal Gains, L1-104-PRODUCE THERMAL ZONE SALES CIRCULATION,OCCUPANCY_SALES,L1-104-PRODUCE THERMAL ZONE,82.84,29.7,29.7,0.359,2.787,0.300,0.700,AutoCalculate,ACTIVITY_SCH,Yes,3.8200E-008,0,30
 People Internal Gains, L1-101-SALESAISLE1 THERMAL ZONE SALES AISLE,OCCUPANCY_SALES,L1-101-SALESAISLE1 THERMAL ZONE,17.35,3.1,3.1,0.179,5.574,0.300,0.700,AutoCalculate,ACTIVITY_SCH,Yes,3.8200E-008,0,3
 People Internal Gains, L1-101-SALESAISLE10 THERMAL ZONE SALES AISLE,OCCUPANCY_SALES,L1-101-SALESAISLE10 THERMAL ZONE,30.21,5.4,5.4,0.179,5.574,0.300,0.700,AutoCalculate,ACTIVITY_SCH,Yes,3.8200E-008,0,5
 People Internal Gains, L1-101-SALESAISLE2 THERMAL ZONE SALES AISLE,OCCUPANCY_SALES,L1-101-SALESAISLE2 THERMAL ZONE,17.36,3.1,3.1,0.179,5.574,0.300,0.700,AutoCalculate,ACTIVITY_SCH,Yes,3.8200E-008,0,3
 People Internal Gains, L1-101-SALESAISLE3 THERMAL ZONE SALES AISLE,OCCUPANCY_SALES,L1-101-SALESAISLE3 THERMAL ZONE,16.85,3.0,3.0,0.179,5.574,0.300,0.700,AutoCalculate,ACTIVITY_SCH,Yes,3.8200E-008,0,3
 People Internal Gains, L1-101-SALESAISLE4 THERMAL ZONE SALES AISLE,OCCUPANCY_SALES,L1-101-SALESAISLE4 THERMAL ZONE,26.50,4.8,4.8,0.179,5.574,0.300,0.700,AutoCalculate,ACTIVITY_SCH,Yes,3.8200E-008,0,5
 People Internal Gains, L1-101-SALESAISLE5 THERMAL ZONE SALES AISLE,OCCUPANCY_SALES,L1-101-SALESAISLE5 THERMAL ZONE,30.14,5.4,5.4,0.179,5.574,0.300,0.700,AutoCalculate,ACTIVITY_SCH,Yes,3.8200E-008,0,5
 People Internal Gains, L1-101-SALESAISLE6 THERMAL ZONE SALES AISLE,OCCUPANCY_SALES,L1-101-SALESAISLE6 THERMAL ZONE,32.03,5.7,5.7,0.179,5.574,0.300,0.700,AutoCalculate,ACTIVITY_SCH,Yes,3.8200E-008,0,6
 People Internal Gains, L1-101-SALESAISLE7 THERMAL ZONE SALES AISLE,OCCUPANCY_SALES,L1-101-SALESAISLE7 THERMAL ZONE,30.20,5.4,5.4,0.179,5.574,0.300,0.700,AutoCalculate,ACTIVITY_SCH,Yes,3.8200E-008,0,5
 People Internal Gains, L1-101-SALESAISLE8 THERMAL ZONE SALES AISLE,OCCUPANCY_SALES,L1-101-SALESAISLE8 THERMAL ZONE,32.01,5.7,5.7,0.179,5.574,0.300,0.700,AutoCalculate,ACTIVITY_SCH,Yes,3.8200E-008,0,6
 People Internal Gains, L1-101-SALESAISLE9 THERMAL ZONE SALES AISLE,OCCUPANCY_SALES,L1-101-SALESAISLE9 THERMAL ZONE,26.66,4.8,4.8,0.179,5.574,0.300,0.700,AutoCalculate,ACTIVITY_SCH,Yes,3.8200E-008,0,5
 People Internal Gains, L1-101-SALESAISLEBULK THERMAL ZONE SALES AISLE,OCCUPANCY_SALES,L1-101-SALESAISLEBULK THERMAL ZONE,22.14,4.0,4.0,0.179,5.574,0.300,0.700,AutoCalculate,ACTIVITY_SCH,Yes,3.8200E-008,0,4
 People Internal Gains, L1-101-SALESREFRIGERATIONAISLE1 THERMAL ZONE SALES AISLE,OCCUPANCY_SALES,L1-101-SALESREFRIGERATIONAISLE1 THERMAL ZONE,6.40,1.1,1.1,0.179,5.574,0.300,0.700,AutoCalculate,ACTIVITY_SCH,Yes,3.8200E-008,0,1
 People Internal Gains, L1-101-SALESREFRIGERATIONAISLE2 THERMAL ZONE SALES AISLE,OCCUPANCY_SALES,L1-101-SALESREFRIGERATIONAISLE2 THERMAL ZONE,10.13,1.8,1.8,0.179,5.574,0.300,0.700,AutoCalculate,ACTIVITY_SCH,Yes,3.8200E-008,0,2
 People Internal Gains, L1-101-SALESREFRIGERATIONAISLE3 THERMAL ZONE SALES AISLE,OCCUPANCY_SALES,L1-101-SALESREFRIGERATIONAISLE3 THERMAL ZONE,10.31,1.9,1.9,0.179,5.574,0.300,0.700,AutoCalculate,ACTIVITY_SCH,Yes,3.8200E-008,0,2
 People Internal Gains, L1-101-SALESREFRIGERATIONAISLE4 THERMAL ZONE SALES AISLE,OCCUPANCY_SALES,L1-101-SALESREFRIGERATIONAISLE4 THERMAL ZONE,10.14,1.8,1.8,0.179,5.574,0.300,0.700,AutoCalculate,ACTIVITY_SCH,Yes,3.8200E-008,0,2
 People Internal Gains, L1-101-SALESREFRIGERATIONAISLE5 THERMAL ZONE SALES AISLE,OCCUPANCY_SALES,L1-101-SALESREFRIGERATIONAISLE5 THERMAL ZONE,10.97,2.0,2.0,0.179,5.574,0.300,0.700,AutoCalculate,ACTIVITY_SCH,Yes,3.8200E-008,0,2
 People Internal Gains, L1-101-SALESREFRIGERATIONAISLE6 THERMAL ZONE SALES AISLE,OCCUPANCY_SALES,L1-101-SALESREFRIGERATIONAISLE6 THERMAL ZONE,6.04,1.1,1.1,0.179,5.574,0.300,0.700,AutoCalculate,ACTIVITY_SCH,Yes,3.8200E-008,0,1
 People Internal Gains, L1-101-SALESREFRIGERATIONAISLE7 THERMAL ZONE SALES AISLE,OCCUPANCY_SALES,L1-101-SALESREFRIGERATIONAISLE7 THERMAL ZONE,9.52,1.7,1.7,0.179,5.574,0.300,0.700,AutoCalculate,ACTIVITY_SCH,Yes,3.8200E-008,0,2
 People Internal Gains, L1-101-SALESREFRIGERATIONENDCAP1 THERMAL ZONE SALES AISLE,OCCUPANCY_SALES,L1-101-SALESREFRIGERATIONENDCAP1 THERMAL ZONE,3.43,0.6,0.6,0.179,5.574,0.300,0.700,AutoCalculate,ACTIVITY_SCH,Yes,3.8200E-008,0,1
 People Internal Gains, L1-101-SALESREFRIGERATIONENDCAP2 THERMAL ZONE SALES AISLE,OCCUPANCY_SALES,L1-101-SALESREFRIGERATIONENDCAP2 THERMAL ZONE,3.44,0.6,0.6,0.179,5.574,0.300,0.700,AutoCalculate,ACTIVITY_SCH,Yes,3.8200E-008,0,1
 People Internal Gains, L1-101-SALESREFRIGERATIONENDCAP3 THERMAL ZONE SALES AISLE,OCCUPANCY_SALES,L1-101-SALESREFRIGERATIONENDCAP3 THERMAL ZONE,3.68,0.7,0.7,0.179,5.574,0.300,0.700,AutoCalculate,ACTIVITY_SCH,Yes,3.8200E-008,0,1
 People Internal Gains, L1-101-SALESREFRIGERATIONREACHINBEER THERMAL ZONE SALES AISLE,OCCUPANCY_SALES,L1-101-SALESREFRIGERATIONREACHINBEER THERMAL ZONE,17.34,3.1,3.1,0.179,5.574,0.300,0.700,AutoCalculate,ACTIVITY_SCH,Yes,3.8200E-008,0,3
 People Internal Gains, L1-101-SALESREFRIGERATIONREACHINBEVERAGES THERMAL ZONE SALES AISLE,OCCUPANCY_SALES,L1-101-SALESREFRIGERATIONREACHINBEVERAGES THERMAL ZONE,11.77,2.1,2.1,0.179,5.574,0.300,0.700,AutoCalculate,ACTIVITY_SCH,Yes,3.8200E-008,0,2
 People Internal Gains, L1-101-SALESREFRIGERATIONREACHINCHEES THERMAL ZONE SALES AISLE,OCCUPANCY_SALES,L1-101-SALESREFRIGERATIONREACHINCHEES THERMAL ZONE,13.54,2.4,2.4,0.179,5.574,0.300,0.700,AutoCalculate,ACTIVITY_SCH,Yes,3.8200E-008,0,2
 People Internal Gains, L1-101-SALESREFRIGERATIONREACHINDAIRY1 THERMAL ZONE SALES AISLE,OCCUPANCY_SALES,L1-101-SALESREFRIGERATIONREACHINDAIRY1 THERMAL ZONE,18.42,3.3,3.3,0.179,5.574,0.300,0.700,AutoCalculate,ACTIVITY_SCH,Yes,3.8200E-008,0,3
 People Internal Gains, L1-101-SALESREFRIGERATIONREACHINDAIRY2 THERMAL ZONE SALES AISLE,OCCUPANCY_SALES,L1-101-SALESREFRIGERATIONREACHINDAIRY2 THERMAL ZONE,13.40,2.4,2.4,0.179,5.574,0.300,0.700,AutoCalculate,ACTIVITY_SCH,Yes,3.8200E-008,0,2
 People Internal Gains, L1-101-SALESREFRIGERATIONREACHINDAIRY3 THERMAL ZONE SALES AISLE,OCCUPANCY_SALES,L1-101-SALESREFRIGERATIONREACHINDAIRY3 THERMAL ZONE,11.17,2.0,2.0,0.179,5.574,0.300,0.700,AutoCalculate,ACTIVITY_SCH,Yes,3.8200E-008,0,2
 People Internal Gains, L1-101-SALESREFRIGERATIONREACHINMEATSUBSTITUTES THERMAL ZONE SALES AISLE,OCCUPANCY_SALES,L1-101-SALESREFRIGERATIONREACHINMEATSUBSTITUTES THERMAL ZONE,9.13,1.6,1.6,0.179,5.574,0.300,0.700,AutoCalculate,ACTIVITY_SCH,Yes,3.8200E-008,0,2
 People Internal Gains, L1-101-SALESREFRIGERATIONREACHINPREPARED THERMAL ZONE SALES AISLE,OCCUPANCY_SALES,L1-101-SALESREFRIGERATIONREACHINPREPARED THERMAL ZONE,22.98,4.1,4.1,0.179,5.574,0.300,0.700,AutoCalculate,ACTIVITY_SCH,Yes,3.8200E-008,0,4
 People Internal Gains, L1-104-PRODUCECOOLERS1 THERMAL ZONE SALES AISLE,OCCUPANCY_SALES,L1-104-PRODUCECOOLERS1 THERMAL ZONE,13.70,2.5,2.5,0.179,5.574,0.300,0.700,AutoCalculate,ACTIVITY_SCH,Yes,3.8200E-008,0,2
 People Internal Gains, L1-104-PRODUCECOOLERS2 THERMAL ZONE SALES AISLE,OCCUPANCY_SALES,L1-104-PRODUCECOOLERS2 THERMAL ZONE,18.73,3.4,3.4,0.179,5.574,0.300,0.700,AutoCalculate,ACTIVITY_SCH,Yes,3.8200E-008,0,3
 People Internal Gains, L1-104-PRODUCECOOLERS3 THERMAL ZONE SALES AISLE,OCCUPANCY_SALES,L1-104-PRODUCECOOLERS3 THERMAL ZONE,18.32,3.3,3.3,0.179,5.574,0.300,0.700,AutoCalculate,ACTIVITY_SCH,Yes,3.8200E-008,0,3
 People Internal Gains, L1-115-MEATSEAFOODCOOLER THERMAL ZONE SALES AISLE,OCCUPANCY_SALES,L1-115-MEATSEAFOODCOOLER THERMAL ZONE,13.11,2.8,2.4,0.179,5.574,0.300,0.700,AutoCalculate,ACTIVITY_SCH,Yes,3.8200E-008,0,2
 People Internal Gains, L1-119-DELICOOLER THERMAL ZONE SALES AISLE,OCCUPANCY_SALES,L1-119-DELICOOLER THERMAL ZONE,7.75,1.6,1.4,0.179,5.574,0.300,0.700,AutoCalculate,ACTIVITY_SCH,Yes,3.8200E-008,0,1
 People Internal Gains, L1-106-RECEIVING THERMAL ZONE BOH RECEIVING,OCCUPANCY_BOH,L1-106-RECEIVING THERMAL ZONE,34.18,3.7,3.7,0.108,9.289,0.300,0.700,AutoCalculate,ACTIVITY_SCH,Yes,3.8200E-008,0,4
 People Internal Gains, L1-109-CORRIDOR THERMAL ZONE BOH RECEIVING,OCCUPANCY_BOH,L1-109-CORRIDOR THERMAL ZONE,14.74,1.6,1.6,0.108,9.289,0.300,0.700,AutoCalculate,ACTIVITY_SCH,Yes,3.8200E-008,0,2
 People Internal Gains, L1-110-PRODUCEPREP THERMAL ZONE BOH PREP,OCCUPANCY_BOH,L1-110-PRODUCEPREP THERMAL ZONE,53.12,2.9,2.9,5.382E-002,18.579,0.300,0.700,AutoCalculate,ACTIVITY_SCH,Yes,3.8200E-008,0,3
 People Internal Gains, L1-118-PREPAREDFOODSPREP THERMAL ZONE BOH PREP,OCCUPANCY_BOH,L1-118-PREPAREDFOODSPREP THERMAL ZONE,41.20,2.2,2.2,5.382E-002,18.579,0.300,0.700,AutoCalculate,ACTIVITY_SCH,Yes,3.8200E-008,0,2
 People Internal Gains, M-162-PREPROOM THERMAL ZONE BOH PREP,OCCUPANCY_BOH,M-162-PREPROOM THERMAL ZONE,27.21,1.5,1.5,5.382E-002,18.579,0.300,0.700,AutoCalculate,ACTIVITY_SCH,Yes,3.8200E-008,0,1
 People Internal Gains, M-163-MEATPREP THERMAL ZONE BOH PREP,OCCUPANCY_BOH,M-163-MEATPREP THERMAL ZONE,43.17,2.3,2.3,5.382E-002,18.579,0.300,0.700,AutoCalculate,ACTIVITY_SCH,Yes,3.8200E-008,0,2
 People Internal Gains, M-164-MEATCOOLER THERMAL ZONE BOH PREP,OCCUPANCY_BOH,M-164-MEATCOOLER THERMAL ZONE,35.84,1.9,1.9,5.382E-002,18.579,0.300,0.700,AutoCalculate,ACTIVITY_SCH,Yes,3.8200E-008,0,2
 People Internal Gains, L1-116-MEATSERVICE THERMAL ZONE SERVICE BARS,OCCUPANCY_SALES,L1-116-MEATSERVICE THERMAL ZONE,24.66,2.7,2.7,0.108,9.289,0.300,0.700,AutoCalculate,ACTIVITY_SCH,Yes,3.8200E-008,0,3
 People Internal Gains, L1-117-SEAFOODSURFACE THERMAL ZONE SERVICE BARS,OCCUPANCY_SALES,L1-117-SEAFOODSURFACE THERMAL ZONE,18.28,2.0,2.0,0.108,9.289,0.300,0.700,AutoCalculate,ACTIVITY_SCH,Yes,3.8200E-008,0,2
 People Internal Gains, L1-124-SPECIALTYSERVICE THERMAL ZONE SERVICE BARS,OCCUPANCY_SALES,L1-124-SPECIALTYSERVICE THERMAL ZONE,30.48,3.3,3.3,0.108,9.289,0.300,0.700,AutoCalculate,ACTIVITY_SCH,Yes,3.8200E-008,0,3
 People Internal Gains, L1-126-BAKERYSERVICE THERMAL ZONE SERVICE BARS,OCCUPANCY_SALES,L1-126-BAKERYSERVICE THERMAL ZONE,18.15,2.0,2.0,0.108,9.289,0.300,0.700,AutoCalculate,ACTIVITY_SCH,Yes,3.8200E-008,0,2
 People Internal Gains, L1-127-COFFEE THERMAL ZONE SERVICE BARS,OCCUPANCY_SALES,L1-127-COFFEE THERMAL ZONE,7.95,0.9,0.9,0.108,9.289,0.300,0.700,AutoCalculate,ACTIVITY_SCH,Yes,3.8200E-008,0,1
 People Internal Gains, L1-102-RECEIVINGOFFICE THERMAL ZONE BOH OFFICE,OCCUPANCY_OFFICE,L1-102-RECEIVINGOFFICE THERMAL ZONE,7.50,0.8,0.8,0.108,9.289,0.300,0.700,AutoCalculate,ACTIVITY_SCH,Yes,3.8200E-008,0,1
 People Internal Gains, M-153-CASHROOM THERMAL ZONE BOH OFFICE,OCCUPANCY_OFFICE,M-153-CASHROOM THERMAL ZONE,8.65,0.9,0.9,0.108,9.289,0.300,0.700,AutoCalculate,ACTIVITY_SCH,Yes,3.8200E-008,0,1
 People Internal Gains, M-154-EXGOFFICE THERMAL ZONE BOH OFFICE,OCCUPANCY_OFFICE,M-154-EXGOFFICE THERMAL ZONE,7.37,0.8,0.8,0.108,9.289,0.300,0.700,AutoCalculate,ACTIVITY_SCH,Yes,3.8200E-008,0,1
 People Internal Gains, M-155-EXGOFFICE THERMAL ZONE BOH OFFICE,OCCUPANCY_OFFICE,M-155-EXGOFFICE THERMAL ZONE,8.01,0.9,0.9,0.108,9.289,0.300,0.700,AutoCalculate,ACTIVITY_SCH,Yes,3.8200E-008,0,1
 People Internal Gains, M-156-STLOFFICE THERMAL ZONE BOH OFFICE,OCCUPANCY_OFFICE,M-156-STLOFFICE THERMAL ZONE,17.42,1.9,1.9,0.108,9.289,0.300,0.700,AutoCalculate,ACTIVITY_SCH,Yes,3.8200E-008,0,2
 People Internal Gains, M-157-EXGOFFICE THERMAL ZONE BOH OFFICE,OCCUPANCY_OFFICE,M-157-EXGOFFICE THERMAL ZONE,13.86,1.5,1.5,0.108,9.289,0.300,0.700,AutoCalculate,ACTIVITY_SCH,Yes,3.8200E-008,0,1
 People Internal Gains, M-201-EXGSTORAGE THERMAL ZONE BOH LOUNGE,OCCUPANCY_OFFICE,M-201-EXGSTORAGE THERMAL ZONE,217.46,23.4,23.4,0.108,9.289,0.300,0.700,AutoCalculate,ACTIVITY_SCH,Yes,3.8200E-008,0,23
 People Internal Gains, M-158-BREAKROOM THERMAL ZONE BOH LOUNGE,OCCUPANCY_OFFICE,M-158-BREAKROOM THERMAL ZONE,12.58,1.4,1.4,0.108,9.289,0.300,0.700,AutoCalculate,ACTIVITY_SCH,Yes,3.8200E-008,0,1
 People Internal Gains, L1-108-PRODUCECOOLER THERMAL ZONE BOH STORAGE,OCCUPANCY_BOH,L1-108-PRODUCECOOLER THERMAL ZONE,30.18,1.0,1.0,3.233E-002,30.934,0.300,0.700,AutoCalculate,ACTIVITY_SCH,Yes,3.8200E-008,0,1
 People Internal Gains, L1-112-DAIRYCOOLER THERMAL ZONE BOH STORAGE,OCCUPANCY_BOH,L1-112-DAIRYCOOLER THERMAL ZONE,27.83,0.9,0.9,3.233E-002,30.934,0.300,0.700,AutoCalculate,ACTIVITY_SCH,Yes,3.8200E-008,0,1
 People Internal Gains, L1-113-BEERCAGE THERMAL ZONE BOH STORAGE,OCCUPANCY_BOH,L1-113-BEERCAGE THERMAL ZONE,7.85,0.3,0.3,3.233E-002,30.934,0.300,0.700,AutoCalculate,ACTIVITY_SCH,Yes,3.8200E-008,0,0
 People Internal Gains, L1-114-BACKSTOCK THERMAL ZONE BOH STORAGE,OCCUPANCY_BOH,L1-114-BACKSTOCK THERMAL ZONE,16.94,0.5,0.5,3.233E-002,30.934,0.300,0.700,AutoCalculate,ACTIVITY_SCH,Yes,3.8200E-008,0,1
 People Internal Gains, L1-115-MEATSEAFOODCOOLER THERMAL ZONE BOH STORAGE,OCCUPANCY_BOH,L1-115-MEATSEAFOODCOOLER THERMAL ZONE,13.11,2.8,0.4,3.233E-002,30.934,0.300,0.700,AutoCalculate,ACTIVITY_SCH,Yes,3.8200E-008,0,0
 People Internal Gains, L1-119-DELICOOLER THERMAL ZONE BOH STORAGE,OCCUPANCY_BOH,L1-119-DELICOOLER THERMAL ZONE,7.75,1.6,0.3,3.233E-002,30.934,0.300,0.700,AutoCalculate,ACTIVITY_SCH,Yes,3.8200E-008,0,0
 People Internal Gains, L2-201-EXGSTORAGE THERMAL ZONE BOH STORAGE,OCCUPANCY_BOH,L2-201-EXGSTORAGE THERMAL ZONE,20.53,0.7,0.7,3.233E-002,30.934,0.300,0.700,AutoCalculate,ACTIVITY_SCH,Yes,3.8200E-008,0,1
 People Internal Gains, L1-102-CHECKOUT1 THERMAL ZONE SALES CHECKOUT,OCCUPANCY_SALES,L1-102-CHECKOUT1 THERMAL ZONE,8.05,2.9,2.9,0.359,2.787,0.300,0.700,AutoCalculate,ACTIVITY_SCH,Yes,3.8200E-008,0,3
 People Internal Gains, L1-102-CHECKOUT2 THERMAL ZONE SALES CHECKOUT,OCCUPANCY_SALES,L1-102-CHECKOUT2 THERMAL ZONE,8.05,2.9,2.9,0.359,2.787,0.300,0.700,AutoCalculate,ACTIVITY_SCH,Yes,3.8200E-008,0,3
 People Internal Gains, L1-102-CHECKOUT3 THERMAL ZONE SALES CHECKOUT,OCCUPANCY_SALES,L1-102-CHECKOUT3 THERMAL ZONE,8.05,2.9,2.9,0.359,2.787,0.300,0.700,AutoCalculate,ACTIVITY_SCH,Yes,3.8200E-008,0,3
 People Internal Gains, L1-102-CHECKOUT4 THERMAL ZONE SALES CHECKOUT,OCCUPANCY_SALES,L1-102-CHECKOUT4 THERMAL ZONE,7.71,2.8,2.8,0.359,2.787,0.300,0.700,AutoCalculate,ACTIVITY_SCH,Yes,3.8200E-008,0,3
 People Internal Gains, L1-102-SELFCHECKOUT THERMAL ZONE SALES CHECKOUT,OCCUPANCY_SALES,L1-102-SELFCHECKOUT THERMAL ZONE,17.63,6.3,6.3,0.359,2.787,0.300,0.700,AutoCalculate,ACTIVITY_SCH,Yes,3.8200E-008,0,6
! <Lights Internal Gains - Nominal>,Name,Schedule Name,Zone Name,Zone Floor Area {m2},# Zone Occupants,Lighting Level {W},Lights/Floor Area {W/m2},Lights per person {W/person},Fraction Return Air,Fraction Radiant,Fraction Short Wave,Fraction Convected,Fraction Replaceable,End-Use Category,Nominal Minimum Lighting Level {W},Nominal Maximum Lighting Level {W}
 Lights Internal Gains, E1-A - COFFEE-BAKERY,LIGHTING_AMBIENT,L1S1-COFFEE THERMAL ZONE,44.13,0.0,42.000,0.952,N/A,0.000,0.580,0.210,0.210,1.000,Coffee/Bakery,0.000,42.000
 Lights Internal Gains, E1-B - COFFEE-BAKERY,LIGHTING_AMBIENT,L1S1-COFFEE THERMAL ZONE,44.13,0.0,42.000,0.952,N/A,0.000,0.580,0.210,0.210,1.000,Coffee/Bakery,0.000,42.000
 Lights Internal Gains, E1-C - COFFEE-BAKERY,LIGHTING_AMBIENT,L1S1-COFFEE THERMAL ZONE,44.13,0.0,42.000,0.952,N/A,0.000,0.580,0.210,0.210,1.000,Coffee/Bakery,0.000,42.000
 Lights Internal Gains, E1-D - COFFEE-BAKERY,LIGHTING_AMBIENT,L1S1-COFFEE THERMAL ZONE,44.13,0.0,42.000,0.952,N/A,0.000,0.580,0.210,0.210,1.000,Coffee/Bakery,0.000,42.000
 Lights Internal Gains, E1-E - COFFEE-BAKERY,LIGHTING_AMBIENT,L1S1-COFFEE THERMAL ZONE,44.13,0.0,42.000,0.952,N/A,0.000,0.580,0.210,0.210,1.000,Coffee/Bakery,0.000,42.000
 Lights Internal Gains, E1-F - COFFEE-BAKERY,LIGHTING_AMBIENT,L1S1-COFFEE THERMAL ZONE,44.13,0.0,42.000,0.952,N/A,0.000,0.580,0.210,0.210,1.000,Coffee/Bakery,0.000,42.000
 Lights Internal Gains, E1-G - COFFEE-BAKERY,LIGHTING_AMBIENT,L1S1-COFFEE THERMAL ZONE,44.13,0.0,42.000,0.952,N/A,0.000,0.580,0.210,0.210,1.000,Coffee/Bakery,0.000,42.000
 Lights Internal Gains, E1-H - COFFEE-BAKERY,LIGHTING_AMBIENT,L1S1-COFFEE THERMAL ZONE,44.13,0.0,42.000,0.952,N/A,0.000,0.580,0.210,0.210,1.000,Coffee/Bakery,0.000,42.000
 Lights Internal Gains, E1-I - COFFEE-BAKERY,LIGHTING_AMBIENT,L1S1-COFFEE THERMAL ZONE,44.13,0.0,42.000,0.952,N/A,0.000,0.580,0.210,0.210,1.000,Coffee/Bakery,0.000,42.000
 Lights Internal Gains, E1-J - COFFEE-BAKERY,LIGHTING_AMBIENT,L1S1-COFFEE THERMAL ZONE,44.13,0.0,42.000,0.952,N/A,0.000,0.580,0.210,0.210,1.000,Coffee/Bakery,0.000,42.000
 Lights Internal Gains, E1-K - COFFEE-BAKERY,LIGHTING_AMBIENT,L1S1-COFFEE THERMAL ZONE,44.13,0.0,42.000,0.952,N/A,0.000,0.580,0.210,0.210,1.000,Coffee/Bakery,0.000,42.000
 Lights Internal Gains, F-A - COFFEE-BAKERY,LIGHTING_AMBIENT,L1S2-BAKERY THERMAL ZONE,44.13,0.0,70.000,1.586,N/A,0.000,0.630,0.270,0.100,1.000,Coffee/Bakery,0.000,70.000
 Lights Internal Gains, A3-A - PREPARED FOODS,LIGHTING_AMBIENT,L1S2-AISLESEAST THERMAL ZONE,476.04,0.0,128.000,0.269,N/A,0.000,0.580,0.210,0.210,1.000,Prepared Foods,0.000,128.000
 Lights Internal Gains, A3-B - PREPARED FOODS,LIGHTING_AMBIENT,L1S2-AISLESEAST THERMAL ZONE,476.04,0.0,128.000,0.269,N/A,0.000,0.580,0.210,0.210,1.000,Prepared Foods,0.000,128.000
 Lights Internal Gains, A3-C - PREPARED FOODS,LIGHTING_AMBIENT,L1S2-AISLESEAST THERMAL ZONE,476.04,0.0,128.000,0.269,N/A,0.000,0.580,0.210,0.210,1.000,Prepared Foods,0.000,128.000
 Lights Internal Gains, F-A - PREPARED FOODS,LIGHTING_AMBIENT,L1S2-AISLESEAST THERMAL ZONE,476.04,0.0,70.000,0.147,N/A,0.000,0.630,0.270,0.100,1.000,Prepared Foods,0.000,70.000
 Lights Internal Gains, F-B - PREPARED FOODS,LIGHTING_AMBIENT,L1S2-AISLESEAST THERMAL ZONE,476.04,0.0,70.000,0.147,N/A,0.000,0.630,0.270,0.100,1.000,Prepared Foods,0.000,70.000
 Lights Internal Gains, F-C - PREPARED FOODS,LIGHTING_AMBIENT,L1S2-AISLESEAST THERMAL ZONE,476.04,0.0,70.000,0.147,N/A,0.000,0.630,0.270,0.100,1.000,Prepared Foods,0.000,70.000
 Lights Internal Gains, E1-A - SPECIALTY,LIGHTING_AMBIENT,L1S1-SPECIALTYSERVICE THERMAL ZONE,113.55,0.0,42.000,0.370,N/A,0.000,0.580,0.210,0.210,1.000,Specialty Foods,0.000,42.000
 Lights Internal Gains, E1-B - SPECIALTY,LIGHTING_AMBIENT,L1S1-SPECIALTYSERVICE THERMAL ZONE,113.55,0.0,42.000,0.370,N/A,0.000,0.580,0.210,0.210,1.000,Specialty Foods,0.000,42.000
 Lights Internal Gains, E1-C - SPECIALTY,LIGHTING_AMBIENT,L1S1-SPECIALTYSERVICE THERMAL ZONE,113.55,0.0,42.000,0.370,N/A,0.000,0.580,0.210,0.210,1.000,Specialty Foods,0.000,42.000
 Lights Internal Gains, E1-D - SPECIALTY,LIGHTING_AMBIENT,L1S1-SPECIALTYSERVICE THERMAL ZONE,113.55,0.0,42.000,0.370,N/A,0.000,0.580,0.210,0.210,1.000,Specialty Foods,0.000,42.000
 Lights Internal Gains, E1-E - SPECIALTY,LIGHTING_AMBIENT,L1S1-SPECIALTYSERVICE THERMAL ZONE,113.55,0.0,42.000,0.370,N/A,0.000,0.580,0.210,0.210,1.000,Specialty Foods,0.000,42.000
 Lights Internal Gains, J-A - SPECIALTY,LIGHTING_AMBIENT,L1S1-SPECIALTYSERVICE THERMAL ZONE,113.55,0.0,39.000,0.343,N/A,0.000,0.630,0.270,0.100,1.000,Specialty Foods,0.000,39.000
 Lights Internal Gains, J-B - SPECIALTY,LIGHTING_AMBIENT,L1S1-SPECIALTYSERVICE THERMAL ZONE,113.55,0.0,39.000,0.343,N/A,0.000,0.630,0.270,0.100,1.000,Specialty Foods,0.000,39.000
 Lights Internal Gains, J-C - SPECIALTY,LIGHTING_AMBIENT,L1S1-SPECIALTYSERVICE THERMAL ZONE,113.55,0.0,39.000,0.343,N/A,0.000,0.630,0.270,0.100,1.000,Specialty Foods,0.000,39.000
 Lights Internal Gains, J-D - SPECIALTY,LIGHTING_AMBIENT,L1S1-SPECIALTYSERVICE THERMAL ZONE,113.55,0.0,39.000,0.343,N/A,0.000,0.630,0.270,0.100,1.000,Specialty Foods,0.000,39.000
 Lights Internal Gains, J-E - SPECIALTY,LIGHTING_AMBIENT,L1S1-SPECIALTYSERVICE THERMAL ZONE,113.55,0.0,39.000,0.343,N/A,0.000,0.630,0.270,0.100,1.000,Specialty Foods,0.000,39.000
 Lights Internal Gains, J-F - SPECIALTY,LIGHTING_AMBIENT,L1S1-SPECIALTYSERVICE THERMAL ZONE,113.55,0.0,39.000,0.343,N/A,0.000,0.630,0.270,0.100,1.000,Specialty Foods,0.000,39.000
 Lights Internal Gains, J-G - SPECIALTY,LIGHTING_AMBIENT,L1S1-SPECIALTYSERVICE THERMAL ZONE,113.55,0.0,39.000,0.343,N/A,0.000,0.630,0.270,0.100,1.000,Specialty Foods,0.000,39.000
 Lights Internal Gains, J-H - SPECIALTY,LIGHTING_AMBIENT,L1S1-SPECIALTYSERVICE THERMAL ZONE,113.55,0.0,39.000,0.343,N/A,0.000,0.630,0.270,0.100,1.000,Specialty Foods,0.000,39.000
 Lights Internal Gains, J-I - SPECIALTY,LIGHTING_AMBIENT,L1S1-SPECIALTYSERVICE THERMAL ZONE,113.55,0.0,39.000,0.343,N/A,0.000,0.630,0.270,0.100,1.000,Specialty Foods,0.000,39.000
 Lights Internal Gains, J-J - SPECIALTY,LIGHTING_AMBIENT,L1S1-SPECIALTYSERVICE THERMAL ZONE,113.55,0.0,39.000,0.343,N/A,0.000,0.630,0.270,0.100,1.000,Specialty Foods,0.000,39.000
 Lights Internal Gains, J-K - SPECIALTY,LIGHTING_AMBIENT,L1S1-SPECIALTYSERVICE THERMAL ZONE,113.55,0.0,39.000,0.343,N/A,0.000,0.630,0.270,0.100,1.000,Specialty Foods,0.000,39.000
 Lights Internal Gains, J-L - SPECIALTY,LIGHTING_AMBIENT,L1S1-SPECIALTYSERVICE THERMAL ZONE,113.55,0.0,39.000,0.343,N/A,0.000,0.630,0.270,0.100,1.000,Specialty Foods,0.000,39.000
 Lights Internal Gains, J-M - SPECIALTY,LIGHTING_AMBIENT,L1S1-SPECIALTYSERVICE THERMAL ZONE,113.55,0.0,39.000,0.343,N/A,0.000,0.630,0.270,0.100,1.000,Specialty Foods,0.000,39.000
 Lights Internal Gains, E-A - SPECIALTY,LIGHTING_AMBIENT,L1S1-SPECIALTYSERVICE THERMAL ZONE,113.55,0.0,42.000,0.370,N/A,0.000,0.580,0.210,0.210,1.000,Specialty Foods,0.000,42.000
 Lights Internal Gains, E-B - SPECIALTY,LIGHTING_AMBIENT,L1S1-SPECIALTYSERVICE THERMAL ZONE,113.55,0.0,42.000,0.370,N/A,0.000,0.580,0.210,0.210,1.000,Specialty Foods,0.000,42.000
 Lights Internal Gains, B3-A - SPECIALTY,LIGHTING_AMBIENT,L1S1-SPECIALTYSERVICE THERMAL ZONE,113.55,0.0,64.000,0.564,N/A,0.000,0.580,0.210,0.210,1.000,Specialty Foods,0.000,64.000
 Lights Internal Gains, B3-B - SPECIALTY,LIGHTING_AMBIENT,L1S1-SPECIALTYSERVICE THERMAL ZONE,113.55,0.0,64.000,0.564,N/A,0.000,0.580,0.210,0.210,1.000,Specialty Foods,0.000,64.000
 Lights Internal Gains, B3-C - SPECIALTY,LIGHTING_AMBIENT,L1S1-SPECIALTYSERVICE THERMAL ZONE,113.55,0.0,64.000,0.564,N/A,0.000,0.580,0.210,0.210,1.000,Specialty Foods,0.000,64.000
 Lights Internal Gains, B3-D - SPECIALTY,LIGHTING_AMBIENT,L1S1-SPECIALTYSERVICE THERMAL ZONE,113.55,0.0,64.000,0.564,N/A,0.000,0.580,0.210,0.210,1.000,Specialty Foods,0.000,64.000
 Lights Internal Gains, B3-E - SPECIALTY,LIGHTING_AMBIENT,L1S1-SPECIALTYSERVICE THERMAL ZONE,113.55,0.0,64.000,0.564,N/A,0.000,0.580,0.210,0.210,1.000,Specialty Foods,0.000,64.000
 Lights Internal Gains, B3-F - SPECIALTY,LIGHTING_AMBIENT,L1S1-SPECIALTYSERVICE THERMAL ZONE,113.55,0.0,64.000,0.564,N/A,0.000,0.580,0.210,0.210,1.000,Specialty Foods,0.000,64.000
 Lights Internal Gains, F-A - SPECIALTY,LIGHTING_AMBIENT,L1S2-AISLESEAST THERMAL ZONE,476.04,0.0,70.000,0.147,N/A,0.000,0.630,0.270,0.100,1.000,Specialty Foods,0.000,70.000
 Lights Internal Gains, F-B - SPECIALTY,LIGHTING_AMBIENT,L1S2-AISLESEAST THERMAL ZONE,476.04,0.0,70.000,0.147,N/A,0.000,0.630,0.270,0.100,1.000,Specialty Foods,0.000,70.000
 Lights Internal Gains, A3-A - SPECIALTY,LIGHTING_AMBIENT,L1S2-AISLESEAST THERMAL ZONE,476.04,0.0,128.000,0.269,N/A,0.000,0.580,0.210,0.210,1.000,Specialty Foods,0.000,128.000
 Lights Internal Gains, A3-B - SPECIALTY,LIGHTING_AMBIENT,L1S2-AISLESEAST THERMAL ZONE,476.04,0.0,128.000,0.269,N/A,0.000,0.580,0.210,0.210,1.000,Specialty Foods,0.000,128.000
[...]
 Warmup Convergence Information,L1-101-SALESCIRCULATION6 THERMAL ZONE,RunPeriod: SIMULATION,0.1328159585,0.1250602432,Pass,Pass,0.0000000000,0.0000000000,Pass,Pass
 Warmup Convergence Information,L1-101-SALESCIRCULATION7 THERMAL ZONE,RunPeriod: SIMULATION,0.2067296033,0.2200249000,Pass,Pass,0.0000000000,0.0000000000,Pass,Pass
 Warmup Convergence Information,L1-101-SALESCIRCULATION8 THERMAL ZONE,RunPeriod: SIMULATION,0.2542568465,0.3015452512,Pass,Pass,0.0000000000,0.0000000000,Pass,Pass
 Warmup Convergence Information,L1-101-SALESCIRCULATION9 THERMAL ZONE,RunPeriod: SIMULATION,0.2951979619,0.3255517041,Pass,Pass,0.0000000000,0.0000000000,Pass,Pass
 Warmup Convergence Information,L1-101-SALESCIRCULATIONMEATSEAFOOD THERMAL ZONE,RunPeriod: SIMULATION,0.2724059890,0.2746281034,Pass,Pass,0.0000000000,0.0000000000,Pass,Pass
 Warmup Convergence Information,L1-101-SALESREFRIGERATIONAISLE1 THERMAL ZONE,RunPeriod: SIMULATION,8.5475775813E-002,7.1467631827E-002,Pass,Pass,0.0000000000,0.0000000000,Pass,Pass
 Warmup Convergence Information,L1-101-SALESREFRIGERATIONAISLE2 THERMAL ZONE,RunPeriod: SIMULATION,8.1705177182E-002,6.8757614316E-002,Pass,Pass,0.0000000000,0.0000000000,Pass,Pass
 Warmup Convergence Information,L1-101-SALESREFRIGERATIONAISLE3 THERMAL ZONE,RunPeriod: SIMULATION,8.1378256580E-002,6.8431812628E-002,Pass,Pass,0.0000000000,0.0000000000,Pass,Pass
 Warmup Convergence Information,L1-101-SALESREFRIGERATIONAISLE4 THERMAL ZONE,RunPeriod: SIMULATION,8.1851593184E-002,6.7768077352E-002,Pass,Pass,0.0000000000,0.0000000000,Pass,Pass
 Warmup Convergence Information,L1-101-SALESREFRIGERATIONAISLE5 THERMAL ZONE,RunPeriod: SIMULATION,9.4519715893E-002,7.8210910634E-002,Pass,Pass,0.0000000000,0.0000000000,Pass,Pass
 Warmup Convergence Information,L1-101-SALESREFRIGERATIONAISLE6 THERMAL ZONE,RunPeriod: SIMULATION,9.9073706603E-002,8.1642161450E-002,Pass,Pass,0.0000000000,0.0000000000,Pass,Pass
 Warmup Convergence Information,L1-101-SALESREFRIGERATIONAISLE7 THERMAL ZONE,RunPeriod: SIMULATION,8.4261241782E-002,6.8241426707E-002,Pass,Pass,0.0000000000,0.0000000000,Pass,Pass
 Warmup Convergence Information,L1-101-SALESREFRIGERATIONENDCAP1 THERMAL ZONE,RunPeriod: SIMULATION,0.1599939159,0.1399826526,Pass,Pass,0.0000000000,0.0000000000,Pass,Pass
 Warmup Convergence Information,L1-101-SALESREFRIGERATIONENDCAP2 THERMAL ZONE,RunPeriod: SIMULATION,0.1611473816,0.1413047751,Pass,Pass,0.0000000000,0.0000000000,Pass,Pass
 Warmup Convergence Information,L1-101-SALESREFRIGERATIONENDCAP3 THERMAL ZONE,RunPeriod: SIMULATION,0.1162086179,0.1046531030,Pass,Pass,0.0000000000,0.0000000000,Pass,Pass
 Warmup Convergence Information,L1-101-SALESREFRIGERATIONREACHINBEER THERMAL ZONE,RunPeriod: SIMULATION,0.5298808272,0.6702876792,Pass,Pass,0.0000000000,0.0000000000,Pass,Pass
 Warmup Convergence Information,L1-101-SALESREFRIGERATIONREACHINBEVERAGES THERMAL ZONE,RunPeriod: SIMULATION,0.2594957574,0.2482398951,Pass,Pass,0.0000000000,0.0000000000,Pass,Pass
 Warmup Convergence Information,L1-101-SALESREFRIGERATIONREACHINCHEES THERMAL ZONE,RunPeriod: SIMULATION,8.7758898662E-002,6.6823026744E-002,Pass,Pass,0.0000000000,0.0000000000,Pass,Pass
 Warmup Convergence Information,L1-101-SALESREFRIGERATIONREACHINDAIRY1 THERMAL ZONE,RunPeriod: SIMULATION,0.1997330028,0.2304696945,Pass,Pass,0.0000000000,0.0000000000,Pass,Pass
 Warmup Convergence Information,L1-101-SALESREFRIGERATIONREACHINDAIRY2 THERMAL ZONE,RunPeriod: SIMULATION,0.1436496588,0.1482819684,Pass,Pass,0.0000000000,0.0000000000,Pass,Pass
 Warmup Convergence Information,L1-101-SALESREFRIGERATIONREACHINDAIRY3 THERMAL ZONE,RunPeriod: SIMULATION,0.1262490042,0.1152730103,Pass,Pass,0.0000000000,0.0000000000,Pass,Pass
 Warmup Convergence Information,L1-101-SALESREFRIGERATIONREACHINMEATSUBSTITUTES THERMAL ZONE,RunPeriod: SIMULATION,0.1616443184,0.1482719538,Pass,Pass,0.0000000000,0.0000000000,Pass,Pass
 Warmup Convergence Information,L1-101-SALESREFRIGERATIONREACHINPREPARED THERMAL ZONE,RunPeriod: SIMULATION,0.1115675321,9.5192914109E-002,Pass,Pass,0.0000000000,0.0000000000,Pass,Pass
 Warmup Convergence Information,L1-101-SALESWINE THERMAL ZONE,RunPeriod: SIMULATION,0.1293919826,0.1187201472,Pass,Pass,0.0000000000,0.0000000000,Pass,Pass
 Warmup Convergence Information,L1-102-CHECKOUT1 THERMAL ZONE,RunPeriod: SIMULATION,0.2697589254,0.3789034794,Pass,Pass,0.0000000000,0.0000000000,Pass,Pass
 Warmup Convergence Information,L1-102-CHECKOUT2 THERMAL ZONE,RunPeriod: SIMULATION,0.2804547224,0.3935471009,Pass,Pass,0.0000000000,0.0000000000,Pass,Pass
 Warmup Convergence Information,L1-102-CHECKOUT3 THERMAL ZONE,RunPeriod: SIMULATION,0.2817835215,0.3931681718,Pass,Pass,0.0000000000,0.0000000000,Pass,Pass
 Warmup Convergence Information,L1-102-CHECKOUT4 THERMAL ZONE,RunPeriod: SIMULATION,0.2925619717,0.3972794070,Pass,Pass,0.0000000000,0.0000000000,Pass,Pass
 Warmup Convergence Information,L1-102-CHECKOUTBAGGING THERMAL ZONE,RunPeriod: SIMULATION,0.1519692300,0.1372219301,Pass,Pass,0.0000000000,0.0000000000,Pass,Pass
 Warmup Convergence Information,L1-102-EXIT THERMAL ZONE,RunPeriod: SIMULATION,0.3204656592,0.3314797748,Pass,Pass,0.0000000000,0.0000000000,Pass,Pass
 Warmup Convergence Information,L1-102-RECEIVINGOFFICE THERMAL ZONE,RunPeriod: SIMULATION,0.3741475087,0.4933739749,Pass,Pass,0.0000000000,0.0000000000,Pass,Pass
 Warmup Convergence Information,L1-102-SELFCHECKOUT THERMAL ZONE,RunPeriod: SIMULATION,0.3360892311,0.4375402417,Pass,Pass,0.0000000000,0.0000000000,Pass,Pass
 Warmup Convergence Information,L1-103-FLORAL THERMAL ZONE,RunPeriod: SIMULATION,0.1996622814,0.2453630964,Pass,Pass,0.0000000000,0.0000000000,Pass,Pass
 Warmup Convergence Information,L1-104-PRODUCE THERMAL ZONE,RunPeriod: SIMULATION,0.1176134577,0.1237964130,Pass,Pass,0.0000000000,0.0000000000,Pass,Pass
 Warmup Convergence Information,L1-104-PRODUCECIRCULATION THERMAL ZONE,RunPeriod: SIMULATION,0.1426793603,0.1412762089,Pass,Pass,0.0000000000,0.0000000000,Pass,Pass
 Warmup Convergence Information,L1-104-PRODUCECOOLERS1 THERMAL ZONE,RunPeriod: SIMULATION,0.1380624850,0.1068626733,Pass,Pass,0.0000000000,0.0000000000,Pass,Pass
 Warmup Convergence Information,L1-104-PRODUCECOOLERS2 THERMAL ZONE,RunPeriod: SIMULATION,0.3218855989,0.4119185995,Pass,Pass,0.0000000000,0.0000000000,Pass,Pass
 Warmup Convergence Information,L1-104-PRODUCECOOLERS3 THERMAL ZONE,RunPeriod: SIMULATION,0.1134083703,0.1058398295,Pass,Pass,0.0000000000,0.0000000000,Pass,Pass
 Warmup Convergence Information,L1-106-RECEIVING THERMAL ZONE,RunPeriod: SIMULATION,0.2914006266,0.3369722505,Pass,Pass,0.0000000000,0.0000000000,Pass,Pass
 Warmup Convergence Information,L1-106-RECEIVINGTRANSFORMERS2 THERMAL ZONE,RunPeriod: SIMULATION,1.5503223104,3.6856844918,Pass,Pass,0.0000000000,0.0000000000,Pass,Pass
 Warmup Convergence Information,L1-108-PRODUCECOOLER THERMAL ZONE,RunPeriod: SIMULATION,0.1128176100,0.1033360231,Pass,Pass,0.0000000000,0.0000000000,Pass,Pass
 Warmup Convergence Information,L1-109-CORRIDOR THERMAL ZONE,RunPeriod: SIMULATION,9.9377149534E-002,6.9495221230E-002,Pass,Pass,0.0000000000,0.0000000000,Pass,Pass
 Warmup Convergence Information,L1-110-PRODUCEPREP THERMAL ZONE,RunPeriod: SIMULATION,0.1831348778,0.2524927310,Pass,Pass,0.0000000000,0.0000000000,Pass,Pass
 Warmup Convergence Information,L1-111-GROCERYFREEZER THERMAL ZONE,RunPeriod: SIMULATION,6.3286378852E-002,3.6209466123E-002,Pass,Pass,0.0000000000,0.0000000000,Pass,Pass
 Warmup Convergence Information,L1-112-DAIRYCOOLER THERMAL ZONE,RunPeriod: SIMULATION,7.6974566409E-002,5.8324389491E-002,Pass,Pass,0.0000000000,0.0000000000,Pass,Pass
 Warmup Convergence Information,L1-113-BEERCAGE THERMAL ZONE,RunPeriod: SIMULATION,7.4474137053E-002,5.0798202926E-002,Pass,Pass,0.0000000000,0.0000000000,Pass,Pass
 Warmup Convergence Information,L1-114-BACKSTOCK THERMAL ZONE,RunPeriod: SIMULATION,7.2829017261E-002,5.1310288431E-002,Pass,Pass,0.0000000000,0.0000000000,Pass,Pass
 Warmup Convergence Information,L1-115-MEATSEAFOODCOOLER THERMAL ZONE,RunPeriod: SIMULATION,0.1400237459,0.1357914781,Pass,Pass,0.0000000000,0.0000000000,Pass,Pass
 Warmup Convergence Information,L1-116-MEATSERVICE THERMAL ZONE,RunPeriod: SIMULATION,0.4794075235,0.7601844851,Pass,Pass,0.0000000000,0.0000000000,Pass,Pass
 Warmup Convergence Information,L1-117-SEAFOODSURFACE THERMAL ZONE,RunPeriod: SIMULATION,0.5776666144,0.7353665388,Pass,Pass,0.0000000000,0.0000000000,Pass,Pass
 Warmup Convergence Information,L1-118-PREPAREDFOODSPREP THERMAL ZONE,RunPeriod: SIMULATION,1.5051105113,2.8690111861,Pass,Pass,0.0000000000,0.0000000000,Pass,Pass
 Warmup Convergence Information,L1-119-DELICOOLER THERMAL ZONE,RunPeriod: SIMULATION,0.4950897527,0.5657271413,Pass,Pass,0.0000000000,0.0000000000,Pass,Pass
 Warmup Convergence Information,L1-120-WOMEN THERMAL ZONE,RunPeriod: SIMULATION,0.5147361364,0.6448914216,Pass,Pass,0.0000000000,0.0000000000,Pass,Pass
 Warmup Convergence Information,L1-121-MEN THERMAL ZONE,RunPeriod: SIMULATION,0.2285383625,0.2038083934,Pass,Pass,0.0000000000,0.0000000000,Pass,Pass
 Warmup Convergence Information,L1-122-CORRIDOR THERMAL ZONE,RunPeriod: SIMULATION,0.2452867936,0.2352657564,Pass,Pass,0.0000000000,0.0000000000,Pass,Pass
 Warmup Convergence Information,L1-123-STAIRS THERMAL ZONE,RunPeriod: SIMULATION,0.1248271023,8.7714505690E-002,Pass,Pass,0.0000000000,0.0000000000,Pass,Pass
 Warmup Convergence Information,L1-124-SPECIALTYSERVICE THERMAL ZONE,RunPeriod: SIMULATION,0.2330895377,0.3105278588,Pass,Pass,0.0000000000,0.0000000000,Pass,Pass
 Warmup Convergence Information,L1-125-PREPAREDFOODS1 THERMAL ZONE,RunPeriod: SIMULATION,0.3084679077,0.3740634060,Pass,Pass,0.0000000000,0.0000000000,Pass,Pass
 Warmup Convergence Information,L1-125-PREPAREDFOODS2 THERMAL ZONE,RunPeriod: SIMULATION,0.6923957217,1.3457918189,Pass,Pass,0.0000000000,0.0000000000,Pass,Pass
 Warmup Convergence Information,L1-126-BAKERYSERVICE THERMAL ZONE,RunPeriod: SIMULATION,1.0610017358,1.9132844506,Pass,Pass,0.0000000000,0.0000000000,Pass,Pass
 Warmup Convergence Information,L1-127-COFFEE THERMAL ZONE,RunPeriod: SIMULATION,1.0470836707,1.8600954639,Pass,Pass,0.0000000000,0.0000000000,Pass,Pass
 Warmup Convergence Information,L1-SHAFT THERMAL ZONE,RunPeriod: SIMULATION,0.5144802268,0.6990804404,Pass,Pass,0.0000000000,0.0000000000,Pass,Pass
 Warmup Convergence Information,L1-STAIRS THERMAL ZONE,RunPeriod: SIMULATION,7.3931318928E-002,5.0112120559E-002,Pass,Pass,0.0000000000,0.0000000000,Pass,Pass
 Warmup Convergence Information,L1S1-BACKSTOCK THERMAL ZONE,RunPeriod: SIMULATION,0.1671504784,0.1092654940,Pass,Pass,0.0000000000,0.0000000000,Pass,Pass
 Warmup Convergence Information,L1S1-BEERCAGE THERMAL ZONE,RunPeriod: SIMULATION,0.2185175428,0.1595374006,Pass,Pass,0.0000000000,0.0000000000,Pass,Pass
 Warmup Convergence Information,L1S1-CHECKOUT THERMAL ZONE,RunPeriod: SIMULATION,0.2566228136,0.1882219877,Pass,Pass,0.0000000000,0.0000000000,Pass,Pass
 Warmup Convergence Information,L1S1-COFFEE THERMAL ZONE,RunPeriod: SIMULATION,0.6215630984,0.5973287112,Pass,Pass,0.0000000000,0.0000000000,Pass,Pass
 Warmup Convergence Information,L1S1-CORRIDOR THERMAL ZONE,RunPeriod: SIMULATION,0.3610215393,0.3019266709,Pass,Pass,0.0000000000,0.0000000000,Pass,Pass
 Warmup Convergence Information,L1S1-DAIRYCOOLER THERMAL ZONE,RunPeriod: SIMULATION,0.1924563752,0.1354269060,Pass,Pass,0.0000000000,0.0000000000,Pass,Pass
 Warmup Convergence Information,L1S1-DELICOOLER THERMAL ZONE,RunPeriod: SIMULATION,0.5738718097,0.4395931177,Pass,Pass,0.0000000000,0.0000000000,Pass,Pass
 Warmup Convergence Information,L1S1-LOADING THERMAL ZONE,RunPeriod: SIMULATION,0.2014246344,0.1208244298,Pass,Pass,0.0000000000,0.0000000000,Pass,Pass
 Warmup Convergence Information,L1S1-MEATSEAFOODCOOLER THERMAL ZONE,RunPeriod: SIMULATION,0.2158270861,0.1574552582,Pass,Pass,0.0000000000,0.0000000000,Pass,Pass
 Warmup Convergence Information,L1S1-MEN THERMAL ZONE,RunPeriod: SIMULATION,0.3971474214,0.3059295025,Pass,Pass,0.0000000000,0.0000000000,Pass,Pass
 Warmup Convergence Information,L1S1-PREPAREDFOODS THERMAL ZONE,RunPeriod: SIMULATION,0.3757974554,0.3234724047,Pass,Pass,0.0000000000,0.0000000000,Pass,Pass
 Warmup Convergence Information,L1S1-PREPAREDFOODSPREP THERMAL ZONE,RunPeriod: SIMULATION,1.1832067618,1.4499582217,Pass,Pass,0.0000000000,0.0000000000,Pass,Pass
 Warmup Convergence Information,L1S1-PRODUCE THERMAL ZONE,RunPeriod: SIMULATION,0.2173646493,0.1463282136,Pass,Pass,0.0000000000,0.0000000000,Pass,Pass
 Warmup Convergence Information,L1S1-SALESAISLE1 THERMAL ZONE,RunPeriod: SIMULATION,0.2976011139,0.2329614880,Pass,Pass,0.0000000000,0.0000000000,Pass,Pass
 Warmup Convergence Information,L1S1-SALESAISLE4 THERMAL ZONE,RunPeriod: SIMULATION,0.1998896925,0.1172350070,Pass,Pass,0.0000000000,0.0000000000,Pass,Pass
 Warmup Convergence Information,L1S1-SALESNORTH THERMAL ZONE,RunPeriod: SIMULATION,0.3751217598,0.3372035448,Pass,Pass,0.0000000000,0.0000000000,Pass,Pass
 Warmup Convergence Information,L1S1-SALESREFRIGERATIONAISLE6 THERMAL ZONE,RunPeriod: SIMULATION,0.2007789508,0.1239790804,Pass,Pass,0.0000000000,0.0000000000,Pass,Pass
 Warmup Convergence Information,L1S1-SALESREFRIGERATIONREACHINDAIRY2 THERMAL ZONE,RunPeriod: SIMULATION,0.2498625998,0.1668413948,Pass,Pass,0.0000000000,0.0000000000,Pass,Pass
 Warmup Convergence Information,L1S1-SALESREFRIGERATIONREACHPREPARED THERMAL ZONE,RunPeriod: SIMULATION,0.2244424882,0.1451117783,Pass,Pass,0.0000000000,0.0000000000,Pass,Pass
 Warmup Convergence Information,L1S1-SALESSOUTH THERMAL ZONE,RunPeriod: SIMULATION,0.2248705210,0.1534109467,Pass,Pass,0.0000000000,0.0000000000,Pass,Pass
 Warmup Convergence Information,L1S1-SEAFOODSURFACE THERMAL ZONE,RunPeriod: SIMULATION,0.5796111127,0.5093321625,Pass,Pass,0.0000000000,0.0000000000,Pass,Pass
 Warmup Convergence Information,L1S1-SHAFT THERMAL ZONE,RunPeriod: SIMULATION,0.2982792761,0.2250242797,Pass,Pass,0.0000000000,0.0000000000,Pass,Pass
 Warmup Convergence Information,L1S1-SPECIALTYSERVICE THERMAL ZONE,RunPeriod: SIMULATION,0.2901607599,0.1898389205,Pass,Pass,0.0000000000,0.0000000000,Pass,Pass
 Warmup Convergence Information,L1S1-STAIRS THERMAL ZONE,RunPeriod: SIMULATION,0.2316191469,0.1310023522,Pass,Pass,0.0000000000,0.0000000000,Pass,Pass
 Warmup Convergence Information,L1S1-WOMEN THERMAL ZONE,RunPeriod: SIMULATION,0.6082064191,0.5792894734,Pass,Pass,0.0000000000,0.0000000000,Pass,Pass
 Warmup Convergence Information,L1S2-AISLESEAST THERMAL ZONE,RunPeriod: SIMULATION,0.3147643198,0.2052237074,Pass,Pass,0.0000000000,0.0000000000,Pass,Pass
 Warmup Convergence Information,L1S2-AISLESWEST THERMAL ZONE,RunPeriod: SIMULATION,0.2905121570,0.1717928728,Pass,Pass,0.0000000000,0.0000000000,Pass,Pass
 Warmup Convergence Information,L1S2-BAKERY THERMAL ZONE,RunPeriod: SIMULATION,0.4391653609,0.3187788838,Pass,Pass,0.0000000000,0.0000000000,Pass,Pass
 Warmup Convergence Information,L1S2-CHECKOUT THERMAL ZONE,RunPeriod: SIMULATION,0.2432183124,0.1495511241,Pass,Pass,0.0000000000,0.0000000000,Pass,Pass
 Warmup Convergence Information,L1S2-LOADINGBOH THERMAL ZONE,RunPeriod: SIMULATION,0.2064558162,0.1216016246,Pass,Pass,0.0000000000,0.0000000000,Pass,Pass
 Warmup Convergence Information,L1S2-REACHINPREPARED THERMAL ZONE,RunPeriod: SIMULATION,0.2202948195,0.1357027596,Pass,Pass,0.0000000000,0.0000000000,Pass,Pass
 Warmup Convergence Information,L1S2-SHAFT THERMAL ZONE,RunPeriod: SIMULATION,0.2195460632,0.1257976744,Pass,Pass,0.0000000000,0.0000000000,Pass,Pass
 Warmup Convergence Information,L1S2-SHAFT2 THERMAL ZONE,RunPeriod: SIMULATION,0.2390604603,0.1413172714,Pass,Pass,0.0000000000,0.0000000000,Pass,Pass
 Warmup Convergence Information,L2-201-CORRIDOR THERMAL ZONE,RunPeriod: SIMULATION,5.0154480101E-002,2.6597966392E-002,Pass,Pass,0.0000000000,0.0000000000,Pass,Pass
 Warmup Convergence Information,L2-201-EXGSTORAGE THERMAL ZONE,RunPeriod: SIMULATION,5.7362626192E-002,3.3638811689E-002,Pass,Pass,0.0000000000,0.0000000000,Pass,Pass
 Warmup Convergence Information,L2-201-STAIRS1 THERMAL ZONE,RunPeriod: SIMULATION,5.9877609924E-002,3.9527751476E-002,Pass,Pass,0.0000000000,0.0000000000,Pass,Pass
 Warmup Convergence Information,L2-201-STORAGE THERMAL ZONE,RunPeriod: SIMULATION,9.4849050012E-002,5.7535158671E-002,Pass,Pass,0.0000000000,0.0000000000,Pass,Pass
 Warmup Convergence Information,L2-201-WALKINS THERMAL ZONE,RunPeriod: SIMULATION,6.9789632983E-002,4.0255771853E-002,Pass,Pass,0.0000000000,0.0000000000,Pass,Pass
 Warmup Convergence Information,L2-205-REFRIGERATIONEQUIPMENTROOMLOWER THERMAL ZONE,RunPeriod: SIMULATION,0.1027501495,5.7638616949E-002,Pass,Pass,0.0000000000,0.0000000000,Pass,Pass
 Warmup Convergence Information,L2-205-REFRIGERATIONEQUIPMENTROOMUPPER THERMAL ZONE,RunPeriod: SIMULATION,0.1054364894,6.3258948627E-002,Pass,Pass,0.0000000000,0.0000000000,Pass,Pass
 Warmup Convergence Information,M-123-STAIRS THERMAL ZONE,RunPeriod: SIMULATION,0.1729380803,7.3983232242E-002,Pass,Pass,0.0000000000,0.0000000000,Pass,Pass
 Warmup Convergence Information,M-151-STAIRS1 THERMAL ZONE,RunPeriod: SIMULATION,3.3691156491E-002,2.1084047956E-002,Pass,Pass,0.0000000000,0.0000000000,Pass,Pass
 Warmup Convergence Information,M-152-MDF THERMAL ZONE,RunPeriod: SIMULATION,4.4978564060E-002,2.0266332573E-002,Pass,Pass,0.0000000000,0.0000000000,Pass,Pass
 Warmup Convergence Information,M-153-CASHROOM THERMAL ZONE,RunPeriod: SIMULATION,6.0389597143E-002,3.2031716655E-002,Pass,Pass,0.0000000000,0.0000000000,Pass,Pass
 Warmup Convergence Information,M-154-EXGOFFICE THERMAL ZONE,RunPeriod: SIMULATION,9.7224134057E-002,7.4735242488E-002,Pass,Pass,0.0000000000,0.0000000000,Pass,Pass
 Warmup Convergence Information,M-155-EXGOFFICE THERMAL ZONE,RunPeriod: SIMULATION,0.1009459893,6.6849052177E-002,Pass,Pass,0.0000000000,0.0000000000,Pass,Pass
 Warmup Convergence Information,M-156-STLOFFICE THERMAL ZONE,RunPeriod: SIMULATION,0.1351837075,0.1092622598,Pass,Pass,0.0000000000,0.0000000000,Pass,Pass
 Warmup Convergence Information,M-157-EXGOFFICE THERMAL ZONE,RunPeriod: SIMULATION,7.6944680438E-002,3.9853874475E-002,Pass,Pass,0.0000000000,0.0000000000,Pass,Pass
 Warmup Convergence Information,M-158-BREAKROOM THERMAL ZONE,RunPeriod: SIMULATION,0.2559953135,0.2818762429,Pass,Pass,0.0000000000,0.0000000000,Pass,Pass
 Warmup Convergence Information,M-159-EXGVEST THERMAL ZONE,RunPeriod: SIMULATION,7.3106042270E-002,3.1389824580E-002,Pass,Pass,0.0000000000,0.0000000000,Pass,Pass
 Warmup Convergence Information,M-161-MEN THERMAL ZONE,RunPeriod: SIMULATION,5.3939515574E-002,2.8491461904E-002,Pass,Pass,0.0000000000,0.0000000000,Pass,Pass
 Warmup Convergence Information,M-162-PREPROOM THERMAL ZONE,RunPeriod: SIMULATION,0.1343226022,7.1074477343E-002,Pass,Pass,0.0000000000,0.0000000000,Pass,Pass
 Warmup Convergence Information,M-163-MEATPREP THERMAL ZONE,RunPeriod: SIMULATION,0.4436476531,0.4123851125,Pass,Pass,0.0000000000,0.0000000000,Pass,Pass
 Warmup Convergence Information,M-164-MEATCOOLER THERMAL ZONE,RunPeriod: SIMULATION,0.7017298611,0.6867755516,Pass,Pass,0.0000000000,0.0000000000,Pass,Pass
 Warmup Convergence Information,M-201-EXGSTORAGE THERMAL ZONE,RunPeriod: SIMULATION,7.3932174473E-002,4.0293806864E-002,Pass,Pass,0.0000000000,0.0000000000,Pass,Pass
 Warmup Convergence Information,M-BAKERYFREEZER THERMAL ZONE,RunPeriod: SIMULATION,0.1870762583,7.9825489085E-002,Pass,Pass,0.0000000000,0.0000000000,Pass,Pass
 Warmup Convergence Information,M-EXGWOMEN THERMAL ZONE,RunPeriod: SIMULATION,8.0712542282E-002,4.1569271554E-002,Pass,Pass,0.0000000000,0.0000000000,Pass,Pass
! <Program Control Information:Threads/Parallel Sims>, Threading Supported,Maximum Number of Threads, Env Set Threads (OMP_NUM_THREADS), EP Env Set Threads (EP_OMP_NUM_THREADS), IDF Set Threads, Number of Threads Used (Interior Radiant Exchange), Number Nominal Surfaces, Number Parallel Sims
Program Control:Threads/Parallel Sims, No,1, N/A, N/A, N/A, N/A, N/A, N/A
End of Data
