Program Version,EnergyPlus, Version 8.6.0-198c6a3cff, YMD=2016.10.13 15:41
