Program Version,EnergyPlus, Version 8.5.0-c87e61b44b, YMD=2016.09.27 12:50,IDD_Version 8.5.0
   ************* IDF Context for following error/warning message:
   ************* Note -- lines truncated at 300 characters, if necessary...
   *************   1106 BuildingSurface:Detailed,
   ************* indicated Name=L1-101-EntranceExit_Srf_0
   ************* Only last 3 lines before error line shown.....
   *************   1107     L1-101-EntranceExit_Srf_0,  !- Name
   *************   1108     FLOOR,                   !- Surface Type
   *************   1109     ,                        !- Construction Name
   ** Severe  ** IP: IDF line~1109 Error detected in Object=BUILDINGSURFACE:DETAILED, name=L1-101-ENTRANCEEXIT_SRF_0
   **   ~~~   ** Field [Construction Name] is required but was blank
   ************* IDF Context for following error/warning message:
   ************* Note -- lines truncated at 300 characters, if necessary...
   *************   1130 BuildingSurface:Detailed,
   ************* indicated Name=L1-101-EntranceExit_Srf_1
   ************* Only last 3 lines before error line shown.....
   *************   1131     L1-101-EntranceExit_Srf_1,  !- Name
   *************   1132     WALL,                    !- Surface Type
   *************   1133     ,                        !- Construction Name
   ** Severe  ** IP: IDF line~1133 Error detected in Object=BUILDINGSURFACE:DETAILED, name=L1-101-ENTRANCEEXIT_SRF_1
   **   ~~~   ** Field [Construction Name] is required but was blank
   ************* IDF Context for following error/warning message:
   ************* Note -- lines truncated at 300 characters, if necessary...
   *************   1154 BuildingSurface:Detailed,
   ************* indicated Name=L1-101-EntranceExit_Srf_2
   ************* Only last 3 lines before error line shown.....
   *************   1155     L1-101-EntranceExit_Srf_2,  !- Name
   *************   1156     WALL,                    !- Surface Type
   *************   1157     ,                        !- Construction Name
   ** Severe  ** IP: IDF line~1157 Error detected in Object=BUILDINGSURFACE:DETAILED, name=L1-101-ENTRANCEEXIT_SRF_2
   **   ~~~   ** Field [Construction Name] is required but was blank
   ************* IDF Context for following error/warning message:
   ************* Note -- lines truncated at 300 characters, if necessary...
   *************   1178 BuildingSurface:Detailed,
   ************* indicated Name=L1-101-EntranceExit_Srf_3
   ************* Only last 3 lines before error line shown.....
   *************   1179     L1-101-EntranceExit_Srf_3,  !- Name
   *************   1180     WALL,                    !- Surface Type
   *************   1181     ,                        !- Construction Name
   ** Severe  ** IP: IDF line~1181 Error detected in Object=BUILDINGSURFACE:DETAILED, name=L1-101-ENTRANCEEXIT_SRF_3
   **   ~~~   ** Field [Construction Name] is required but was blank
   ************* IDF Context for following error/warning message:
   ************* Note -- lines truncated at 300 characters, if necessary...
   *************   1202 BuildingSurface:Detailed,
   ************* indicated Name=L1-101-EntranceExit_Srf_4
   ************* Only last 3 lines before error line shown.....
   *************   1203     L1-101-EntranceExit_Srf_4,  !- Name
   *************   1204     WALL,                    !- Surface Type
   *************   1205     ,                        !- Construction Name
   ** Severe  ** IP: IDF line~1205 Error detected in Object=BUILDINGSURFACE:DETAILED, name=L1-101-ENTRANCEEXIT_SRF_4
   **   ~~~   ** Field [Construction Name] is required but was blank
   ************* IDF Context for following error/warning message:
   ************* Note -- lines truncated at 300 characters, if necessary...
   *************   1226 BuildingSurface:Detailed,
   ************* indicated Name=L1-101-EntranceExit_Srf_5
   ************* Only last 3 lines before error line shown.....
   *************   1227     L1-101-EntranceExit_Srf_5,  !- Name
   *************   1228     WALL,                    !- Surface Type
   *************   1229     ,                        !- Construction Name
   ** Severe  ** IP: IDF line~1229 Error detected in Object=BUILDINGSURFACE:DETAILED, name=L1-101-ENTRANCEEXIT_SRF_5
   **   ~~~   ** Field [Construction Name] is required but was blank
   ************* IDF Context for following error/warning message:
   ************* Note -- lines truncated at 300 characters, if necessary...
   *************   1250 BuildingSurface:Detailed,
   ************* indicated Name=L1-101-EntranceExit_Srf_6
   ************* Only last 3 lines before error line shown.....
   *************   1251     L1-101-EntranceExit_Srf_6,  !- Name
   *************   1252     Roof,                    !- Surface Type
   *************   1253     ,                        !- Construction Name
   ** Severe  ** IP: IDF line~1253 Error detected in Object=BUILDINGSURFACE:DETAILED, name=L1-101-ENTRANCEEXIT_SRF_6
   **   ~~~   ** Field [Construction Name] is required but was blank
   ************* IDF Context for following error/warning message:
   ************* Note -- lines truncated at 300 characters, if necessary...
   *************   1274 BuildingSurface:Detailed,
   ************* indicated Name=L1-101-SalesAisle1_Srf_0
   ************* Only last 3 lines before error line shown.....
   *************   1275     L1-101-SalesAisle1_Srf_0,!- Name
   *************   1276     FLOOR,                   !- Surface Type
   *************   1277     ,                        !- Construction Name
   ** Severe  ** IP: IDF line~1277 Error detected in Object=BUILDINGSURFACE:DETAILED, name=L1-101-SALESAISLE1_SRF_0
   **   ~~~   ** Field [Construction Name] is required but was blank
   ************* IDF Context for following error/warning message:
   ************* Note -- lines truncated at 300 characters, if necessary...
   *************   1298 BuildingSurface:Detailed,
   ************* indicated Name=L1-101-SalesAisle1_Srf_1
   ************* Only last 3 lines before error line shown.....
   *************   1299     L1-101-SalesAisle1_Srf_1,!- Name
   *************   1300     WALL,                    !- Surface Type
   *************   1301     ,                        !- Construction Name
   ** Severe  ** IP: IDF line~1301 Error detected in Object=BUILDINGSURFACE:DETAILED, name=L1-101-SALESAISLE1_SRF_1
   **   ~~~   ** Field [Construction Name] is required but was blank
   ************* IDF Context for following error/warning message:
   ************* Note -- lines truncated at 300 characters, if necessary...
   *************   1322 BuildingSurface:Detailed,
   ************* indicated Name=L1-101-SalesAisle1_Srf_2
   ************* Only last 3 lines before error line shown.....
   *************   1323     L1-101-SalesAisle1_Srf_2,!- Name
   *************   1324     WALL,                    !- Surface Type
   *************   1325     ,                        !- Construction Name
   ** Severe  ** IP: IDF line~1325 Error detected in Object=BUILDINGSURFACE:DETAILED, name=L1-101-SALESAISLE1_SRF_2
   **   ~~~   ** Field [Construction Name] is required but was blank
   ************* IDF Context for following error/warning message:
   ************* Note -- lines truncated at 300 characters, if necessary...
   *************   1346 BuildingSurface:Detailed,
   ************* indicated Name=L1-101-SalesAisle1_Srf_3
   ************* Only last 3 lines before error line shown.....
   *************   1347     L1-101-SalesAisle1_Srf_3,!- Name
   *************   1348     WALL,                    !- Surface Type
   *************   1349     ,                        !- Construction Name
   ** Severe  ** IP: IDF line~1349 Error detected in Object=BUILDINGSURFACE:DETAILED, name=L1-101-SALESAISLE1_SRF_3
   **   ~~~   ** Field [Construction Name] is required but was blank
   ************* IDF Context for following error/warning message:
   ************* Note -- lines truncated at 300 characters, if necessary...
   *************   1370 BuildingSurface:Detailed,
   ************* indicated Name=L1-101-SalesAisle1_Srf_4
   ************* Only last 3 lines before error line shown.....
   *************   1371     L1-101-SalesAisle1_Srf_4,!- Name
   *************   1372     WALL,                    !- Surface Type
   *************   1373     ,                        !- Construction Name
   ** Severe  ** IP: IDF line~1373 Error detected in Object=BUILDINGSURFACE:DETAILED, name=L1-101-SALESAISLE1_SRF_4
   **   ~~~   ** Field [Construction Name] is required but was blank
   ************* IDF Context for following error/warning message:
   ************* Note -- lines truncated at 300 characters, if necessary...
   *************   1394 BuildingSurface:Detailed,
   ************* indicated Name=L1-101-SalesAisle1_Srf_5
   ************* Only last 3 lines before error line shown.....
   *************   1395     L1-101-SalesAisle1_Srf_5,!- Name
   *************   1396     Roof,                    !- Surface Type
   *************   1397     ,                        !- Construction Name
   ** Severe  ** IP: IDF line~1397 Error detected in Object=BUILDINGSURFACE:DETAILED, name=L1-101-SALESAISLE1_SRF_5
   **   ~~~   ** Field [Construction Name] is required but was blank
   ************* IDF Context for following error/warning message:
   ************* Note -- lines truncated at 300 characters, if necessary...
   *************   1418 BuildingSurface:Detailed,
   ************* indicated Name=L1-101-SalesAisle10_Srf_0
   ************* Only last 3 lines before error line shown.....
   *************   1419     L1-101-SalesAisle10_Srf_0,  !- Name
   *************   1420     FLOOR,                   !- Surface Type
   *************   1421     ,                        !- Construction Name
   ** Severe  ** IP: IDF line~1421 Error detected in Object=BUILDINGSURFACE:DETAILED, name=L1-101-SALESAISLE10_SRF_0
   **   ~~~   ** Field [Construction Name] is required but was blank
   ************* IDF Context for following error/warning message:
   ************* Note -- lines truncated at 300 characters, if necessary...
   *************   1442 BuildingSurface:Detailed,
   ************* indicated Name=L1-101-SalesAisle10_Srf_1
   ************* Only last 3 lines before error line shown.....
   *************   1443     L1-101-SalesAisle10_Srf_1,  !- Name
   *************   1444     WALL,                    !- Surface Type
   *************   1445     ,                        !- Construction Name
   ** Severe  ** IP: IDF line~1445 Error detected in Object=BUILDINGSURFACE:DETAILED, name=L1-101-SALESAISLE10_SRF_1
   **   ~~~   ** Field [Construction Name] is required but was blank
   ************* IDF Context for following error/warning message:
   ************* Note -- lines truncated at 300 characters, if necessary...
   *************   1466 BuildingSurface:Detailed,
   ************* indicated Name=L1-101-SalesAisle10_Srf_10
   ************* Only last 3 lines before error line shown.....
   *************   1467     L1-101-SalesAisle10_Srf_10,  !- Name
   *************   1468     WALL,                    !- Surface Type
   *************   1469     ,                        !- Construction Name
   ** Severe  ** IP: IDF line~1469 Error detected in Object=BUILDINGSURFACE:DETAILED, name=L1-101-SALESAISLE10_SRF_10
   **   ~~~   ** Field [Construction Name] is required but was blank
   ************* IDF Context for following error/warning message:
   ************* Note -- lines truncated at 300 characters, if necessary...
   *************   1490 BuildingSurface:Detailed,
   ************* indicated Name=L1-101-SalesAisle10_Srf_11
   ************* Only last 3 lines before error line shown.....
   *************   1491     L1-101-SalesAisle10_Srf_11,  !- Name
   *************   1492     Roof,                    !- Surface Type
   *************   1493     ,                        !- Construction Name
   ** Severe  ** IP: IDF line~1493 Error detected in Object=BUILDINGSURFACE:DETAILED, name=L1-101-SALESAISLE10_SRF_11
   **   ~~~   ** Field [Construction Name] is required but was blank
   ************* IDF Context for following error/warning message:
   ************* Note -- lines truncated at 300 characters, if necessary...
   *************   1514 BuildingSurface:Detailed,
   ************* indicated Name=L1-101-SalesAisle10_Srf_2
   ************* Only last 3 lines before error line shown.....
   *************   1515     L1-101-SalesAisle10_Srf_2,  !- Name
   *************   1516     WALL,                    !- Surface Type
   *************   1517     ,                        !- Construction Name
   ** Severe  ** IP: IDF line~1517 Error detected in Object=BUILDINGSURFACE:DETAILED, name=L1-101-SALESAISLE10_SRF_2
   **   ~~~   ** Field [Construction Name] is required but was blank
   ************* IDF Context for following error/warning message:
   ************* Note -- lines truncated at 300 characters, if necessary...
   *************   1538 BuildingSurface:Detailed,
   ************* indicated Name=L1-101-SalesAisle10_Srf_3
   ************* Only last 3 lines before error line shown.....
   *************   1539     L1-101-SalesAisle10_Srf_3,  !- Name
   *************   1540     WALL,                    !- Surface Type
   *************   1541     ,                        !- Construction Name
   ** Severe  ** IP: IDF line~1541 Error detected in Object=BUILDINGSURFACE:DETAILED, name=L1-101-SALESAISLE10_SRF_3
   **   ~~~   ** Field [Construction Name] is required but was blank
   ************* IDF Context for following error/warning message:
   ************* Note -- lines truncated at 300 characters, if necessary...
   *************   1562 BuildingSurface:Detailed,
   ************* indicated Name=L1-101-SalesAisle10_Srf_4
   ************* Only last 3 lines before error line shown.....
   *************   1563     L1-101-SalesAisle10_Srf_4,  !- Name
   *************   1564     WALL,                    !- Surface Type
   *************   1565     ,                        !- Construction Name
   ** Severe  ** IP: IDF line~1565 Error detected in Object=BUILDINGSURFACE:DETAILED, name=L1-101-SALESAISLE10_SRF_4
   **   ~~~   ** Field [Construction Name] is required but was blank
   ************* IDF Context for following error/warning message:
   ************* Note -- lines truncated at 300 characters, if necessary...
   *************   1586 BuildingSurface:Detailed,
   ************* indicated Name=L1-101-SalesAisle10_Srf_5
   ************* Only last 3 lines before error line shown.....
   *************   1587     L1-101-SalesAisle10_Srf_5,  !- Name
   *************   1588     WALL,                    !- Surface Type
   *************   1589     ,                        !- Construction Name
   ** Severe  ** IP: IDF line~1589 Error detected in Object=BUILDINGSURFACE:DETAILED, name=L1-101-SALESAISLE10_SRF_5
   **   ~~~   ** Field [Construction Name] is required but was blank
   ************* IDF Context for following error/warning message:
   ************* Note -- lines truncated at 300 characters, if necessary...
   *************   1610 BuildingSurface:Detailed,
   ************* indicated Name=L1-101-SalesAisle10_Srf_6
   ************* Only last 3 lines before error line shown.....
   *************   1611     L1-101-SalesAisle10_Srf_6,  !- Name
   *************   1612     WALL,                    !- Surface Type
   *************   1613     ,                        !- Construction Name
   ** Severe  ** IP: IDF line~1613 Error detected in Object=BUILDINGSURFACE:DETAILED, name=L1-101-SALESAISLE10_SRF_6
   **   ~~~   ** Field [Construction Name] is required but was blank
   ************* IDF Context for following error/warning message:
   ************* Note -- lines truncated at 300 characters, if necessary...
   *************   1634 BuildingSurface:Detailed,
   ************* indicated Name=L1-101-SalesAisle10_Srf_7
   ************* Only last 3 lines before error line shown.....
   *************   1635     L1-101-SalesAisle10_Srf_7,  !- Name
   *************   1636     WALL,                    !- Surface Type
   *************   1637     ,                        !- Construction Name
   ** Severe  ** IP: IDF line~1637 Error detected in Object=BUILDINGSURFACE:DETAILED, name=L1-101-SALESAISLE10_SRF_7
   **   ~~~   ** Field [Construction Name] is required but was blank
   ************* IDF Context for following error/warning message:
   ************* Note -- lines truncated at 300 characters, if necessary...
   *************   1658 BuildingSurface:Detailed,
   ************* indicated Name=L1-101-SalesAisle10_Srf_8
   ************* Only last 3 lines before error line shown.....
   *************   1659     L1-101-SalesAisle10_Srf_8,  !- Name
   *************   1660     WALL,                    !- Surface Type
   *************   1661     ,                        !- Construction Name
   ** Severe  ** IP: IDF line~1661 Error detected in Object=BUILDINGSURFACE:DETAILED, name=L1-101-SALESAISLE10_SRF_8
   **   ~~~   ** Field [Construction Name] is required but was blank
   ************* IDF Context for following error/warning message:
   ************* Note -- lines truncated at 300 characters, if necessary...
   *************   1682 BuildingSurface:Detailed,
   ************* indicated Name=L1-101-SalesAisle10_Srf_9
   ************* Only last 3 lines before error line shown.....
   *************   1683     L1-101-SalesAisle10_Srf_9,  !- Name
   *************   1684     WALL,                    !- Surface Type
   *************   1685     ,                        !- Construction Name
   ** Severe  ** IP: IDF line~1685 Error detected in Object=BUILDINGSURFACE:DETAILED, name=L1-101-SALESAISLE10_SRF_9
   **   ~~~   ** Field [Construction Name] is required but was blank
   ************* IDF Context for following error/warning message:
   ************* Note -- lines truncated at 300 characters, if necessary...
   *************   1706 BuildingSurface:Detailed,
   ************* indicated Name=L1-101-SalesAisle2_Srf_0
   ************* Only last 3 lines before error line shown.....
   *************   1707     L1-101-SalesAisle2_Srf_0,!- Name
   *************   1708     FLOOR,                   !- Surface Type
   *************   1709     ,                        !- Construction Name
   ** Severe  ** IP: IDF line~1709 Error detected in Object=BUILDINGSURFACE:DETAILED, name=L1-101-SALESAISLE2_SRF_0
   **   ~~~   ** Field [Construction Name] is required but was blank
   ************* IDF Context for following error/warning message:
   ************* Note -- lines truncated at 300 characters, if necessary...
   *************   1730 BuildingSurface:Detailed,
   ************* indicated Name=L1-101-SalesAisle2_Srf_1
   ************* Only last 3 lines before error line shown.....
   *************   1731     L1-101-SalesAisle2_Srf_1,!- Name
   *************   1732     WALL,                    !- Surface Type
   *************   1733     ,                        !- Construction Name
   ** Severe  ** IP: IDF line~1733 Error detected in Object=BUILDINGSURFACE:DETAILED, name=L1-101-SALESAISLE2_SRF_1
   **   ~~~   ** Field [Construction Name] is required but was blank
   ************* IDF Context for following error/warning message:
   ************* Note -- lines truncated at 300 characters, if necessary...
   *************   1754 BuildingSurface:Detailed,
   ************* indicated Name=L1-101-SalesAisle2_Srf_2
   ************* Only last 3 lines before error line shown.....
   *************   1755     L1-101-SalesAisle2_Srf_2,!- Name
   *************   1756     WALL,                    !- Surface Type
   *************   1757     ,                        !- Construction Name
   ** Severe  ** IP: IDF line~1757 Error detected in Object=BUILDINGSURFACE:DETAILED, name=L1-101-SALESAISLE2_SRF_2
   **   ~~~   ** Field [Construction Name] is required but was blank
   ************* IDF Context for following error/warning message:
   ************* Note -- lines truncated at 300 characters, if necessary...
   *************   1778 BuildingSurface:Detailed,
   ************* indicated Name=L1-101-SalesAisle2_Srf_3
   ************* Only last 3 lines before error line shown.....
   *************   1779     L1-101-SalesAisle2_Srf_3,!- Name
   *************   1780     WALL,                    !- Surface Type
   *************   1781     ,                        !- Construction Name
   ** Severe  ** IP: IDF line~1781 Error detected in Object=BUILDINGSURFACE:DETAILED, name=L1-101-SALESAISLE2_SRF_3
   **   ~~~   ** Field [Construction Name] is required but was blank
   ************* IDF Context for following error/warning message:
   ************* Note -- lines truncated at 300 characters, if necessary...
   *************   1802 BuildingSurface:Detailed,
   ************* indicated Name=L1-101-SalesAisle2_Srf_4
   ************* Only last 3 lines before error line shown.....
   *************   1803     L1-101-SalesAisle2_Srf_4,!- Name
   *************   1804     WALL,                    !- Surface Type
   *************   1805     ,                        !- Construction Name
   ** Severe  ** IP: IDF line~1805 Error detected in Object=BUILDINGSURFACE:DETAILED, name=L1-101-SALESAISLE2_SRF_4
   **   ~~~   ** Field [Construction Name] is required but was blank
   ************* IDF Context for following error/warning message:
   ************* Note -- lines truncated at 300 characters, if necessary...
   *************   1826 BuildingSurface:Detailed,
   ************* indicated Name=L1-101-SalesAisle2_Srf_5
   ************* Only last 3 lines before error line shown.....
   *************   1827     L1-101-SalesAisle2_Srf_5,!- Name
   *************   1828     WALL,                    !- Surface Type
   *************   1829     ,                        !- Construction Name
   ** Severe  ** IP: IDF line~1829 Error detected in Object=BUILDINGSURFACE:DETAILED, name=L1-101-SALESAISLE2_SRF_5
   **   ~~~   ** Field [Construction Name] is required but was blank
   ************* IDF Context for following error/warning message:
   ************* Note -- lines truncated at 300 characters, if necessary...
   *************   1850 BuildingSurface:Detailed,
   ************* indicated Name=L1-101-SalesAisle2_Srf_6
   ************* Only last 3 lines before error line shown.....
   *************   1851     L1-101-SalesAisle2_Srf_6,!- Name
   *************   1852     Roof,                    !- Surface Type
   *************   1853     ,                        !- Construction Name
   ** Severe  ** IP: IDF line~1853 Error detected in Object=BUILDINGSURFACE:DETAILED, name=L1-101-SALESAISLE2_SRF_6
   **   ~~~   ** Field [Construction Name] is required but was blank
   ************* IDF Context for following error/warning message:
   ************* Note -- lines truncated at 300 characters, if necessary...
   *************   1874 BuildingSurface:Detailed,
   ************* indicated Name=L1-101-SalesAisle3_Srf_0
   ************* Only last 3 lines before error line shown.....
   *************   1875     L1-101-SalesAisle3_Srf_0,!- Name
   *************   1876     FLOOR,                   !- Surface Type
   *************   1877     ,                        !- Construction Name
   ** Severe  ** IP: IDF line~1877 Error detected in Object=BUILDINGSURFACE:DETAILED, name=L1-101-SALESAISLE3_SRF_0
   **   ~~~   ** Field [Construction Name] is required but was blank
   ************* IDF Context for following error/warning message:
   ************* Note -- lines truncated at 300 characters, if necessary...
   *************   1898 BuildingSurface:Detailed,
   ************* indicated Name=L1-101-SalesAisle3_Srf_1
   ************* Only last 3 lines before error line shown.....
   *************   1899     L1-101-SalesAisle3_Srf_1,!- Name
   *************   1900     WALL,                    !- Surface Type
   *************   1901     ,                        !- Construction Name
   ** Severe  ** IP: IDF line~1901 Error detected in Object=BUILDINGSURFACE:DETAILED, name=L1-101-SALESAISLE3_SRF_1
   **   ~~~   ** Field [Construction Name] is required but was blank
   ************* IDF Context for following error/warning message:
   ************* Note -- lines truncated at 300 characters, if necessary...
   *************   1922 BuildingSurface:Detailed,
   ************* indicated Name=L1-101-SalesAisle3_Srf_2
   ************* Only last 3 lines before error line shown.....
   *************   1923     L1-101-SalesAisle3_Srf_2,!- Name
   *************   1924     WALL,                    !- Surface Type
   *************   1925     ,                        !- Construction Name
   ** Severe  ** IP: IDF line~1925 Error detected in Object=BUILDINGSURFACE:DETAILED, name=L1-101-SALESAISLE3_SRF_2
   **   ~~~   ** Field [Construction Name] is required but was blank
   ************* IDF Context for following error/warning message:
   ************* Note -- lines truncated at 300 characters, if necessary...
   *************   1946 BuildingSurface:Detailed,
   ************* indicated Name=L1-101-SalesAisle3_Srf_3
   ************* Only last 3 lines before error line shown.....
   *************   1947     L1-101-SalesAisle3_Srf_3,!- Name
   *************   1948     WALL,                    !- Surface Type
   *************   1949     ,                        !- Construction Name
   ** Severe  ** IP: IDF line~1949 Error detected in Object=BUILDINGSURFACE:DETAILED, name=L1-101-SALESAISLE3_SRF_3
   **   ~~~   ** Field [Construction Name] is required but was blank
   ************* IDF Context for following error/warning message:
   ************* Note -- lines truncated at 300 characters, if necessary...
   *************   1970 BuildingSurface:Detailed,
   ************* indicated Name=L1-101-SalesAisle3_Srf_4
   ************* Only last 3 lines before error line shown.....
   *************   1971     L1-101-SalesAisle3_Srf_4,!- Name
   *************   1972     WALL,                    !- Surface Type
   *************   1973     ,                        !- Construction Name
   ** Severe  ** IP: IDF line~1973 Error detected in Object=BUILDINGSURFACE:DETAILED, name=L1-101-SALESAISLE3_SRF_4
   **   ~~~   ** Field [Construction Name] is required but was blank
   ************* IDF Context for following error/warning message:
   ************* Note -- lines truncated at 300 characters, if necessary...
   *************   1994 BuildingSurface:Detailed,
   ************* indicated Name=L1-101-SalesAisle3_Srf_5
   ************* Only last 3 lines before error line shown.....
   *************   1995     L1-101-SalesAisle3_Srf_5,!- Name
   *************   1996     WALL,                    !- Surface Type
   *************   1997     ,                        !- Construction Name
   ** Severe  ** IP: IDF line~1997 Error detected in Object=BUILDINGSURFACE:DETAILED, name=L1-101-SALESAISLE3_SRF_5
   **   ~~~   ** Field [Construction Name] is required but was blank
   ************* IDF Context for following error/warning message:
   ************* Note -- lines truncated at 300 characters, if necessary...
   *************   2018 BuildingSurface:Detailed,
   ************* indicated Name=L1-101-SalesAisle3_Srf_6
   ************* Only last 3 lines before error line shown.....
   *************   2019     L1-101-SalesAisle3_Srf_6,!- Name
   *************   2020     Roof,                    !- Surface Type
   *************   2021     ,                        !- Construction Name
   ** Severe  ** IP: IDF line~2021 Error detected in Object=BUILDINGSURFACE:DETAILED, name=L1-101-SALESAISLE3_SRF_6
   **   ~~~   ** Field [Construction Name] is required but was blank
   ************* IDF Context for following error/warning message:
   ************* Note -- lines truncated at 300 characters, if necessary...
   *************   2042 BuildingSurface:Detailed,
   ************* indicated Name=L1-101-SalesAisle4_Srf_0
   ************* Only last 3 lines before error line shown.....
   *************   2043     L1-101-SalesAisle4_Srf_0,!- Name
   *************   2044     FLOOR,                   !- Surface Type
   *************   2045     ,                        !- Construction Name
   ** Severe  ** IP: IDF line~2045 Error detected in Object=BUILDINGSURFACE:DETAILED, name=L1-101-SALESAISLE4_SRF_0
   **   ~~~   ** Field [Construction Name] is required but was blank
   ************* IDF Context for following error/warning message:
   ************* Note -- lines truncated at 300 characters, if necessary...
   *************   2066 BuildingSurface:Detailed,
   ************* indicated Name=L1-101-SalesAisle4_Srf_1
   ************* Only last 3 lines before error line shown.....
   *************   2067     L1-101-SalesAisle4_Srf_1,!- Name
   *************   2068     WALL,                    !- Surface Type
   *************   2069     ,                        !- Construction Name
   ** Severe  ** IP: IDF line~2069 Error detected in Object=BUILDINGSURFACE:DETAILED, name=L1-101-SALESAISLE4_SRF_1
   **   ~~~   ** Field [Construction Name] is required but was blank
   ************* IDF Context for following error/warning message:
   ************* Note -- lines truncated at 300 characters, if necessary...
   *************   2090 BuildingSurface:Detailed,
   ************* indicated Name=L1-101-SalesAisle4_Srf_2
   ************* Only last 3 lines before error line shown.....
   *************   2091     L1-101-SalesAisle4_Srf_2,!- Name
   *************   2092     WALL,                    !- Surface Type
   *************   2093     ,                        !- Construction Name
   ** Severe  ** IP: IDF line~2093 Error detected in Object=BUILDINGSURFACE:DETAILED, name=L1-101-SALESAISLE4_SRF_2
   **   ~~~   ** Field [Construction Name] is required but was blank
   ************* IDF Context for following error/warning message:
   ************* Note -- lines truncated at 300 characters, if necessary...
   *************   2114 BuildingSurface:Detailed,
   ************* indicated Name=L1-101-SalesAisle4_Srf_3
   ************* Only last 3 lines before error line shown.....
   *************   2115     L1-101-SalesAisle4_Srf_3,!- Name
   *************   2116     WALL,                    !- Surface Type
   *************   2117     ,                        !- Construction Name
   ** Severe  ** IP: IDF line~2117 Error detected in Object=BUILDINGSURFACE:DETAILED, name=L1-101-SALESAISLE4_SRF_3
   **   ~~~   ** Field [Construction Name] is required but was blank
   ************* IDF Context for following error/warning message:
   ************* Note -- lines truncated at 300 characters, if necessary...
   *************   2138 BuildingSurface:Detailed,
   ************* indicated Name=L1-101-SalesAisle4_Srf_4
   ************* Only last 3 lines before error line shown.....
   *************   2139     L1-101-SalesAisle4_Srf_4,!- Name
   *************   2140     WALL,                    !- Surface Type
   *************   2141     ,                        !- Construction Name
   ** Severe  ** IP: IDF line~2141 Error detected in Object=BUILDINGSURFACE:DETAILED, name=L1-101-SALESAISLE4_SRF_4
   **   ~~~   ** Field [Construction Name] is required but was blank
   ************* IDF Context for following error/warning message:
   ************* Note -- lines truncated at 300 characters, if necessary...
   *************   2162 BuildingSurface:Detailed,
   ************* indicated Name=L1-101-SalesAisle4_Srf_5
   ************* Only last 3 lines before error line shown.....
   *************   2163     L1-101-SalesAisle4_Srf_5,!- Name
   *************   2164     WALL,                    !- Surface Type
   *************   2165     ,                        !- Construction Name
   ** Severe  ** IP: IDF line~2165 Error detected in Object=BUILDINGSURFACE:DETAILED, name=L1-101-SALESAISLE4_SRF_5
   **   ~~~   ** Field [Construction Name] is required but was blank
   ************* IDF Context for following error/warning message:
   ************* Note -- lines truncated at 300 characters, if necessary...
   *************   2186 BuildingSurface:Detailed,
   ************* indicated Name=L1-101-SalesAisle4_Srf_6
   ************* Only last 3 lines before error line shown.....
   *************   2187     L1-101-SalesAisle4_Srf_6,!- Name
   *************   2188     Roof,                    !- Surface Type
   *************   2189     ,                        !- Construction Name
   ** Severe  ** IP: IDF line~2189 Error detected in Object=BUILDINGSURFACE:DETAILED, name=L1-101-SALESAISLE4_SRF_6
   **   ~~~   ** Field [Construction Name] is required but was blank
   ************* IDF Context for following error/warning message:
   ************* Note -- lines truncated at 300 characters, if necessary...
   *************   2210 BuildingSurface:Detailed,
   ************* indicated Name=L1-101-SalesAisle5_Srf_0
   ************* Only last 3 lines before error line shown.....
   *************   2211     L1-101-SalesAisle5_Srf_0,!- Name
   *************   2212     FLOOR,                   !- Surface Type
   *************   2213     ,                        !- Construction Name
   ** Severe  ** IP: IDF line~2213 Error detected in Object=BUILDINGSURFACE:DETAILED, name=L1-101-SALESAISLE5_SRF_0
   **   ~~~   ** Field [Construction Name] is required but was blank
   ************* IDF Context for following error/warning message:
   ************* Note -- lines truncated at 300 characters, if necessary...
   *************   2234 BuildingSurface:Detailed,
   ************* indicated Name=L1-101-SalesAisle5_Srf_1
   ************* Only last 3 lines before error line shown.....
   *************   2235     L1-101-SalesAisle5_Srf_1,!- Name
   *************   2236     WALL,                    !- Surface Type
   *************   2237     ,                        !- Construction Name
   ** Severe  ** IP: IDF line~2237 Error detected in Object=BUILDINGSURFACE:DETAILED, name=L1-101-SALESAISLE5_SRF_1
   **   ~~~   ** Field [Construction Name] is required but was blank
   ************* IDF Context for following error/warning message:
   ************* Note -- lines truncated at 300 characters, if necessary...
   *************   2258 BuildingSurface:Detailed,
   ************* indicated Name=L1-101-SalesAisle5_Srf_2
   ************* Only last 3 lines before error line shown.....
   *************   2259     L1-101-SalesAisle5_Srf_2,!- Name
   *************   2260     WALL,                    !- Surface Type
   *************   2261     ,                        !- Construction Name
   ** Severe  ** IP: IDF line~2261 Error detected in Object=BUILDINGSURFACE:DETAILED, name=L1-101-SALESAISLE5_SRF_2
   **   ~~~   ** Field [Construction Name] is required but was blank
   ************* IDF Context for following error/warning message:
   ************* Note -- lines truncated at 300 characters, if necessary...
   *************   2282 BuildingSurface:Detailed,
   ************* indicated Name=L1-101-SalesAisle5_Srf_3
   ************* Only last 3 lines before error line shown.....
   *************   2283     L1-101-SalesAisle5_Srf_3,!- Name
   *************   2284     WALL,                    !- Surface Type
   *************   2285     ,                        !- Construction Name
   ** Severe  ** IP: IDF line~2285 Error detected in Object=BUILDINGSURFACE:DETAILED, name=L1-101-SALESAISLE5_SRF_3
   **   ~~~   ** Field [Construction Name] is required but was blank
   ************* IDF Context for following error/warning message:
   ************* Note -- lines truncated at 300 characters, if necessary...
   *************   2306 BuildingSurface:Detailed,
   ************* indicated Name=L1-101-SalesAisle5_Srf_4
   ************* Only last 3 lines before error line shown.....
   *************   2307     L1-101-SalesAisle5_Srf_4,!- Name
   *************   2308     WALL,                    !- Surface Type
   *************   2309     ,                        !- Construction Name
   ** Severe  ** IP: IDF line~2309 Error detected in Object=BUILDINGSURFACE:DETAILED, name=L1-101-SALESAISLE5_SRF_4
   **   ~~~   ** Field [Construction Name] is required but was blank
   ************* IDF Context for following error/warning message:
   ************* Note -- lines truncated at 300 characters, if necessary...
   *************   2330 BuildingSurface:Detailed,
   ************* indicated Name=L1-101-SalesAisle5_Srf_5
   ************* Only last 3 lines before error line shown.....
   *************   2331     L1-101-SalesAisle5_Srf_5,!- Name
   *************   2332     Roof,                    !- Surface Type
   *************   2333     ,                        !- Construction Name
   ** Severe  ** IP: IDF line~2333 Error detected in Object=BUILDINGSURFACE:DETAILED, name=L1-101-SALESAISLE5_SRF_5
   **   ~~~   ** Field [Construction Name] is required but was blank
   ************* IDF Context for following error/warning message:
   ************* Note -- lines truncated at 300 characters, if necessary...
   *************   2354 BuildingSurface:Detailed,
   ************* indicated Name=L1-101-SalesAisle6_Srf_0
   ************* Only last 3 lines before error line shown.....
   *************   2355     L1-101-SalesAisle6_Srf_0,!- Name
   *************   2356     FLOOR,                   !- Surface Type
   *************   2357     ,                        !- Construction Name
   ** Severe  ** IP: IDF line~2357 Error detected in Object=BUILDINGSURFACE:DETAILED, name=L1-101-SALESAISLE6_SRF_0
   **   ~~~   ** Field [Construction Name] is required but was blank
   ************* IDF Context for following error/warning message:
   ************* Note -- lines truncated at 300 characters, if necessary...
   *************   2378 BuildingSurface:Detailed,
   ************* indicated Name=L1-101-SalesAisle6_Srf_1
   ************* Only last 3 lines before error line shown.....
   *************   2379     L1-101-SalesAisle6_Srf_1,!- Name
   *************   2380     WALL,                    !- Surface Type
   *************   2381     ,                        !- Construction Name
   ** Severe  ** IP: IDF line~2381 Error detected in Object=BUILDINGSURFACE:DETAILED, name=L1-101-SALESAISLE6_SRF_1
   **   ~~~   ** Field [Construction Name] is required but was blank
   ************* IDF Context for following error/warning message:
   ************* Note -- lines truncated at 300 characters, if necessary...
   *************   2402 BuildingSurface:Detailed,
   ************* indicated Name=L1-101-SalesAisle6_Srf_2
   ************* Only last 3 lines before error line shown.....
   *************   2403     L1-101-SalesAisle6_Srf_2,!- Name
   *************   2404     WALL,                    !- Surface Type
   *************   2405     ,                        !- Construction Name
   ** Severe  ** IP: IDF line~2405 Error detected in Object=BUILDINGSURFACE:DETAILED, name=L1-101-SALESAISLE6_SRF_2
   **   ~~~   ** Field [Construction Name] is required but was blank
   ************* IDF Context for following error/warning message:
   ************* Note -- lines truncated at 300 characters, if necessary...
   *************   2426 BuildingSurface:Detailed,
   ************* indicated Name=L1-101-SalesAisle6_Srf_3
   ************* Only last 3 lines before error line shown.....
   *************   2427     L1-101-SalesAisle6_Srf_3,!- Name
   *************   2428     WALL,                    !- Surface Type
   *************   2429     ,                        !- Construction Name
   ** Severe  ** IP: IDF line~2429 Error detected in Object=BUILDINGSURFACE:DETAILED, name=L1-101-SALESAISLE6_SRF_3
   **   ~~~   ** Field [Construction Name] is required but was blank
   ************* IDF Context for following error/warning message:
   ************* Note -- lines truncated at 300 characters, if necessary...
   *************   2450 BuildingSurface:Detailed,
   ************* indicated Name=L1-101-SalesAisle6_Srf_4
   ************* Only last 3 lines before error line shown.....
   *************   2451     L1-101-SalesAisle6_Srf_4,!- Name
   *************   2452     WALL,                    !- Surface Type
   *************   2453     ,                        !- Construction Name
   ** Severe  ** IP: IDF line~2453 Error detected in Object=BUILDINGSURFACE:DETAILED, name=L1-101-SALESAISLE6_SRF_4
   **   ~~~   ** Field [Construction Name] is required but was blank
   ************* IDF Context for following error/warning message:
   ************* Note -- lines truncated at 300 characters, if necessary...
   *************   2474 BuildingSurface:Detailed,
   ************* indicated Name=L1-101-SalesAisle6_Srf_5
   ************* Only last 3 lines before error line shown.....
   *************   2475     L1-101-SalesAisle6_Srf_5,!- Name
   *************   2476     Roof,                    !- Surface Type
   *************   2477     ,                        !- Construction Name
   ** Severe  ** IP: IDF line~2477 Error detected in Object=BUILDINGSURFACE:DETAILED, name=L1-101-SALESAISLE6_SRF_5
   **   ~~~   ** Field [Construction Name] is required but was blank
   ************* IDF Context for following error/warning message:
   ************* Note -- lines truncated at 300 characters, if necessary...
   *************   2498 BuildingSurface:Detailed,
   ************* indicated Name=L1-101-SalesAisle7_Srf_0
   ************* Only last 3 lines before error line shown.....
   *************   2499     L1-101-SalesAisle7_Srf_0,!- Name
   *************   2500     FLOOR,                   !- Surface Type
   *************   2501     ,                        !- Construction Name
   ** Severe  ** IP: IDF line~2501 Error detected in Object=BUILDINGSURFACE:DETAILED, name=L1-101-SALESAISLE7_SRF_0
   **   ~~~   ** Field [Construction Name] is required but was blank
   ************* IDF Context for following error/warning message:
   ************* Note -- lines truncated at 300 characters, if necessary...
   *************   2522 BuildingSurface:Detailed,
   ************* indicated Name=L1-101-SalesAisle7_Srf_1
   ************* Only last 3 lines before error line shown.....
   *************   2523     L1-101-SalesAisle7_Srf_1,!- Name
   *************   2524     WALL,                    !- Surface Type
   *************   2525     ,                        !- Construction Name
   ** Severe  ** IP: IDF line~2525 Error detected in Object=BUILDINGSURFACE:DETAILED, name=L1-101-SALESAISLE7_SRF_1
   **   ~~~   ** Field [Construction Name] is required but was blank
   ************* IDF Context for following error/warning message:
   ************* Note -- lines truncated at 300 characters, if necessary...
   *************   2546 BuildingSurface:Detailed,
   ************* indicated Name=L1-101-SalesAisle7_Srf_2
   ************* Only last 3 lines before error line shown.....
   *************   2547     L1-101-SalesAisle7_Srf_2,!- Name
   *************   2548     WALL,                    !- Surface Type
   *************   2549     ,                        !- Construction Name
   ** Severe  ** IP: IDF line~2549 Error detected in Object=BUILDINGSURFACE:DETAILED, name=L1-101-SALESAISLE7_SRF_2
   **   ~~~   ** Field [Construction Name] is required but was blank
   ************* IDF Context for following error/warning message:
   ************* Note -- lines truncated at 300 characters, if necessary...
   *************   2570 BuildingSurface:Detailed,
   ************* indicated Name=L1-101-SalesAisle7_Srf_3
   ************* Only last 3 lines before error line shown.....
   *************   2571     L1-101-SalesAisle7_Srf_3,!- Name
   *************   2572     WALL,                    !- Surface Type
   *************   2573     ,                        !- Construction Name
   ** Severe  ** IP: IDF line~2573 Error detected in Object=BUILDINGSURFACE:DETAILED, name=L1-101-SALESAISLE7_SRF_3
   **   ~~~   ** Field [Construction Name] is required but was blank
   ************* IDF Context for following error/warning message:
   ************* Note -- lines truncated at 300 characters, if necessary...
   *************   2594 BuildingSurface:Detailed,
   ************* indicated Name=L1-101-SalesAisle7_Srf_4
   ************* Only last 3 lines before error line shown.....
   *************   2595     L1-101-SalesAisle7_Srf_4,!- Name
   *************   2596     WALL,                    !- Surface Type
   *************   2597     ,                        !- Construction Name
   ** Severe  ** IP: IDF line~2597 Error detected in Object=BUILDINGSURFACE:DETAILED, name=L1-101-SALESAISLE7_SRF_4
   **   ~~~   ** Field [Construction Name] is required but was blank
   ************* IDF Context for following error/warning message:
   ************* Note -- lines truncated at 300 characters, if necessary...
   *************   2618 BuildingSurface:Detailed,
   ************* indicated Name=L1-101-SalesAisle7_Srf_5
   ************* Only last 3 lines before error line shown.....
   *************   2619     L1-101-SalesAisle7_Srf_5,!- Name
   *************   2620     Roof,                    !- Surface Type
   *************   2621     ,                        !- Construction Name
   ** Severe  ** IP: IDF line~2621 Error detected in Object=BUILDINGSURFACE:DETAILED, name=L1-101-SALESAISLE7_SRF_5
   **   ~~~   ** Field [Construction Name] is required but was blank
   ************* IDF Context for following error/warning message:
   ************* Note -- lines truncated at 300 characters, if necessary...
   *************   2642 BuildingSurface:Detailed,
   ************* indicated Name=L1-101-SalesAisle8_Srf_0
   ************* Only last 3 lines before error line shown.....
   *************   2643     L1-101-SalesAisle8_Srf_0,!- Name
   *************   2644     FLOOR,                   !- Surface Type
   *************   2645     ,                        !- Construction Name
   ** Severe  ** IP: IDF line~2645 Error detected in Object=BUILDINGSURFACE:DETAILED, name=L1-101-SALESAISLE8_SRF_0
   **   ~~~   ** Field [Construction Name] is required but was blank
   ************* IDF Context for following error/warning message:
   ************* Note -- lines truncated at 300 characters, if necessary...
   *************   2666 BuildingSurface:Detailed,
   ************* indicated Name=L1-101-SalesAisle8_Srf_1
   ************* Only last 3 lines before error line shown.....
   *************   2667     L1-101-SalesAisle8_Srf_1,!- Name
   *************   2668     WALL,                    !- Surface Type
   *************   2669     ,                        !- Construction Name
   ** Severe  ** IP: IDF line~2669 Error detected in Object=BUILDINGSURFACE:DETAILED, name=L1-101-SALESAISLE8_SRF_1
   **   ~~~   ** Field [Construction Name] is required but was blank
   ************* IDF Context for following error/warning message:
   ************* Note -- lines truncated at 300 characters, if necessary...
   *************   2690 BuildingSurface:Detailed,
   ************* indicated Name=L1-101-SalesAisle8_Srf_10
   ************* Only last 3 lines before error line shown.....
   *************   2691     L1-101-SalesAisle8_Srf_10,  !- Name
   *************   2692     Roof,                    !- Surface Type
   *************   2693     ,                        !- Construction Name
   ** Severe  ** IP: IDF line~2693 Error detected in Object=BUILDINGSURFACE:DETAILED, name=L1-101-SALESAISLE8_SRF_10
   **   ~~~   ** Field [Construction Name] is required but was blank
   ************* IDF Context for following error/warning message:
   ************* Note -- lines truncated at 300 characters, if necessary...
   *************   2714 BuildingSurface:Detailed,
   ************* indicated Name=L1-101-SalesAisle8_Srf_2
   ************* Only last 3 lines before error line shown.....
   *************   2715     L1-101-SalesAisle8_Srf_2,!- Name
   *************   2716     WALL,                    !- Surface Type
   *************   2717     ,                        !- Construction Name
   ** Severe  ** IP: IDF line~2717 Error detected in Object=BUILDINGSURFACE:DETAILED, name=L1-101-SALESAISLE8_SRF_2
   **   ~~~   ** Field [Construction Name] is required but was blank
   ************* IDF Context for following error/warning message:
   ************* Note -- lines truncated at 300 characters, if necessary...
   *************   2738 BuildingSurface:Detailed,
   ************* indicated Name=L1-101-SalesAisle8_Srf_3
   ************* Only last 3 lines before error line shown.....
   *************   2739     L1-101-SalesAisle8_Srf_3,!- Name
   *************   2740     WALL,                    !- Surface Type
   *************   2741     ,                        !- Construction Name
   ** Severe  ** IP: IDF line~2741 Error detected in Object=BUILDINGSURFACE:DETAILED, name=L1-101-SALESAISLE8_SRF_3
   **   ~~~   ** Field [Construction Name] is required but was blank
   ************* IDF Context for following error/warning message:
   ************* Note -- lines truncated at 300 characters, if necessary...
   *************   2762 BuildingSurface:Detailed,
   ************* indicated Name=L1-101-SalesAisle8_Srf_4
   ************* Only last 3 lines before error line shown.....
   *************   2763     L1-101-SalesAisle8_Srf_4,!- Name
   *************   2764     WALL,                    !- Surface Type
   *************   2765     ,                        !- Construction Name
   ** Severe  ** IP: IDF line~2765 Error detected in Object=BUILDINGSURFACE:DETAILED, name=L1-101-SALESAISLE8_SRF_4
   **   ~~~   ** Field [Construction Name] is required but was blank
   ************* IDF Context for following error/warning message:
   ************* Note -- lines truncated at 300 characters, if necessary...
   *************   2786 BuildingSurface:Detailed,
   ************* indicated Name=L1-101-SalesAisle8_Srf_5
   ************* Only last 3 lines before error line shown.....
   *************   2787     L1-101-SalesAisle8_Srf_5,!- Name
   *************   2788     WALL,                    !- Surface Type
   *************   2789     ,                        !- Construction Name
   ** Severe  ** IP: IDF line~2789 Error detected in Object=BUILDINGSURFACE:DETAILED, name=L1-101-SALESAISLE8_SRF_5
   **   ~~~   ** Field [Construction Name] is required but was blank
   ************* IDF Context for following error/warning message:
   ************* Note -- lines truncated at 300 characters, if necessary...
   *************   2810 BuildingSurface:Detailed,
   ************* indicated Name=L1-101-SalesAisle8_Srf_6
   ************* Only last 3 lines before error line shown.....
   *************   2811     L1-101-SalesAisle8_Srf_6,!- Name
   *************   2812     WALL,                    !- Surface Type
   *************   2813     ,                        !- Construction Name
   ** Severe  ** IP: IDF line~2813 Error detected in Object=BUILDINGSURFACE:DETAILED, name=L1-101-SALESAISLE8_SRF_6
   **   ~~~   ** Field [Construction Name] is required but was blank
   ************* IDF Context for following error/warning message:
   ************* Note -- lines truncated at 300 characters, if necessary...
   *************   2834 BuildingSurface:Detailed,
   ************* indicated Name=L1-101-SalesAisle8_Srf_7
   ************* Only last 3 lines before error line shown.....
   *************   2835     L1-101-SalesAisle8_Srf_7,!- Name
   *************   2836     WALL,                    !- Surface Type
   *************   2837     ,                        !- Construction Name
   ** Severe  ** IP: IDF line~2837 Error detected in Object=BUILDINGSURFACE:DETAILED, name=L1-101-SALESAISLE8_SRF_7
   **   ~~~   ** Field [Construction Name] is required but was blank
   ************* IDF Context for following error/warning message:
   ************* Note -- lines truncated at 300 characters, if necessary...
   *************   2858 BuildingSurface:Detailed,
   ************* indicated Name=L1-101-SalesAisle8_Srf_8
   ************* Only last 3 lines before error line shown.....
   *************   2859     L1-101-SalesAisle8_Srf_8,!- Name
   *************   2860     WALL,                    !- Surface Type
   *************   2861     ,                        !- Construction Name
   ** Severe  ** IP: IDF line~2861 Error detected in Object=BUILDINGSURFACE:DETAILED, name=L1-101-SALESAISLE8_SRF_8
   **   ~~~   ** Field [Construction Name] is required but was blank
   ************* IDF Context for following error/warning message:
   ************* Note -- lines truncated at 300 characters, if necessary...
   *************   2882 BuildingSurface:Detailed,
   ************* indicated Name=L1-101-SalesAisle8_Srf_9
   ************* Only last 3 lines before error line shown.....
   *************   2883     L1-101-SalesAisle8_Srf_9,!- Name
   *************   2884     WALL,                    !- Surface Type
   *************   2885     ,                        !- Construction Name
   ** Severe  ** IP: IDF line~2885 Error detected in Object=BUILDINGSURFACE:DETAILED, name=L1-101-SALESAISLE8_SRF_9
   **   ~~~   ** Field [Construction Name] is required but was blank
   ************* IDF Context for following error/warning message:
   ************* Note -- lines truncated at 300 characters, if necessary...
   *************   2906 BuildingSurface:Detailed,
   ************* indicated Name=L1-101-SalesAisle9_Srf_0
   ************* Only last 3 lines before error line shown.....
   *************   2907     L1-101-SalesAisle9_Srf_0,!- Name
   *************   2908     FLOOR,                   !- Surface Type
   *************   2909     ,                        !- Construction Name
   ** Severe  ** IP: IDF line~2909 Error detected in Object=BUILDINGSURFACE:DETAILED, name=L1-101-SALESAISLE9_SRF_0
   **   ~~~   ** Field [Construction Name] is required but was blank
   ************* IDF Context for following error/warning message:
   ************* Note -- lines truncated at 300 characters, if necessary...
   *************   2930 BuildingSurface:Detailed,
   ************* indicated Name=L1-101-SalesAisle9_Srf_1
   ************* Only last 3 lines before error line shown.....
   *************   2931     L1-101-SalesAisle9_Srf_1,!- Name
   *************   2932     WALL,                    !- Surface Type
   *************   2933     ,                        !- Construction Name
   ** Severe  ** IP: IDF line~2933 Error detected in Object=BUILDINGSURFACE:DETAILED, name=L1-101-SALESAISLE9_SRF_1
   **   ~~~   ** Field [Construction Name] is required but was blank
   ************* IDF Context for following error/warning message:
   ************* Note -- lines truncated at 300 characters, if necessary...
   *************   2954 BuildingSurface:Detailed,
   ************* indicated Name=L1-101-SalesAisle9_Srf_2
   ************* Only last 3 lines before error line shown.....
   *************   2955     L1-101-SalesAisle9_Srf_2,!- Name
   *************   2956     WALL,                    !- Surface Type
   *************   2957     ,                        !- Construction Name
   ** Severe  ** IP: IDF line~2957 Error detected in Object=BUILDINGSURFACE:DETAILED, name=L1-101-SALESAISLE9_SRF_2
   **   ~~~   ** Field [Construction Name] is required but was blank
   ************* IDF Context for following error/warning message:
   ************* Note -- lines truncated at 300 characters, if necessary...
   *************   2978 BuildingSurface:Detailed,
   ************* indicated Name=L1-101-SalesAisle9_Srf_3
   ************* Only last 3 lines before error line shown.....
   *************   2979     L1-101-SalesAisle9_Srf_3,!- Name
   *************   2980     WALL,                    !- Surface Type
   *************   2981     ,                        !- Construction Name
   ** Severe  ** IP: IDF line~2981 Error detected in Object=BUILDINGSURFACE:DETAILED, name=L1-101-SALESAISLE9_SRF_3
   **   ~~~   ** Field [Construction Name] is required but was blank
   ************* IDF Context for following error/warning message:
   ************* Note -- lines truncated at 300 characters, if necessary...
   *************   3002 BuildingSurface:Detailed,
   ************* indicated Name=L1-101-SalesAisle9_Srf_4
   ************* Only last 3 lines before error line shown.....
   *************   3003     L1-101-SalesAisle9_Srf_4,!- Name
   *************   3004     WALL,                    !- Surface Type
   *************   3005     ,                        !- Construction Name
   ** Severe  ** IP: IDF line~3005 Error detected in Object=BUILDINGSURFACE:DETAILED, name=L1-101-SALESAISLE9_SRF_4
   **   ~~~   ** Field [Construction Name] is required but was blank
   ************* IDF Context for following error/warning message:
   ************* Note -- lines truncated at 300 characters, if necessary...
   *************   3026 BuildingSurface:Detailed,
   ************* indicated Name=L1-101-SalesAisle9_Srf_5
   ************* Only last 3 lines before error line shown.....
   *************   3027     L1-101-SalesAisle9_Srf_5,!- Name
   *************   3028     WALL,                    !- Surface Type
   *************   3029     ,                        !- Construction Name
   ** Severe  ** IP: IDF line~3029 Error detected in Object=BUILDINGSURFACE:DETAILED, name=L1-101-SALESAISLE9_SRF_5
   **   ~~~   ** Field [Construction Name] is required but was blank
   ************* IDF Context for following error/warning message:
   ************* Note -- lines truncated at 300 characters, if necessary...
   *************   3050 BuildingSurface:Detailed,
   ************* indicated Name=L1-101-SalesAisle9_Srf_6
   ************* Only last 3 lines before error line shown.....
   *************   3051     L1-101-SalesAisle9_Srf_6,!- Name
   *************   3052     WALL,                    !- Surface Type
   *************   3053     ,                        !- Construction Name
   ** Severe  ** IP: IDF line~3053 Error detected in Object=BUILDINGSURFACE:DETAILED, name=L1-101-SALESAISLE9_SRF_6
   **   ~~~   ** Field [Construction Name] is required but was blank
   ************* IDF Context for following error/warning message:
   ************* Note -- lines truncated at 300 characters, if necessary...
   *************   3074 BuildingSurface:Detailed,
   ************* indicated Name=L1-101-SalesAisle9_Srf_7
   ************* Only last 3 lines before error line shown.....
   *************   3075     L1-101-SalesAisle9_Srf_7,!- Name
   *************   3076     WALL,                    !- Surface Type
   *************   3077     ,                        !- Construction Name
   ** Severe  ** IP: IDF line~3077 Error detected in Object=BUILDINGSURFACE:DETAILED, name=L1-101-SALESAISLE9_SRF_7
   **   ~~~   ** Field [Construction Name] is required but was blank
   ************* IDF Context for following error/warning message:
   ************* Note -- lines truncated at 300 characters, if necessary...
   *************   3098 BuildingSurface:Detailed,
   ************* indicated Name=L1-101-SalesAisle9_Srf_8
   ************* Only last 3 lines before error line shown.....
   *************   3099     L1-101-SalesAisle9_Srf_8,!- Name
   *************   3100     WALL,                    !- Surface Type
   *************   3101     ,                        !- Construction Name
   ** Severe  ** IP: IDF line~3101 Error detected in Object=BUILDINGSURFACE:DETAILED, name=L1-101-SALESAISLE9_SRF_8
   **   ~~~   ** Field [Construction Name] is required but was blank
   ************* IDF Context for following error/warning message:
   ************* Note -- lines truncated at 300 characters, if necessary...
   *************   3122 BuildingSurface:Detailed,
   ************* indicated Name=L1-101-SalesAisle9_Srf_9
   ************* Only last 3 lines before error line shown.....
   *************   3123     L1-101-SalesAisle9_Srf_9,!- Name
   *************   3124     Roof,                    !- Surface Type
   *************   3125     ,                        !- Construction Name
   ** Severe  ** IP: IDF line~3125 Error detected in Object=BUILDINGSURFACE:DETAILED, name=L1-101-SALESAISLE9_SRF_9
   **   ~~~   ** Field [Construction Name] is required but was blank
   ************* IDF Context for following error/warning message:
   ************* Note -- lines truncated at 300 characters, if necessary...
   *************   3146 BuildingSurface:Detailed,
   ************* indicated Name=L1-101-SalesAisleBulk_Srf_0
   ************* Only last 3 lines before error line shown.....
   *************   3147     L1-101-SalesAisleBulk_Srf_0,  !- Name
   *************   3148     FLOOR,                   !- Surface Type
   *************   3149     ,                        !- Construction Name
   ** Severe  ** IP: IDF line~3149 Error detected in Object=BUILDINGSURFACE:DETAILED, name=L1-101-SALESAISLEBULK_SRF_0
   **   ~~~   ** Field [Construction Name] is required but was blank
   ************* IDF Context for following error/warning message:
   ************* Note -- lines truncated at 300 characters, if necessary...
   *************   3170 BuildingSurface:Detailed,
   ************* indicated Name=L1-101-SalesAisleBulk_Srf_1
   ************* Only last 3 lines before error line shown.....
   *************   3171     L1-101-SalesAisleBulk_Srf_1,  !- Name
   *************   3172     WALL,                    !- Surface Type
   *************   3173     ,                        !- Construction Name
   ** Severe  ** IP: IDF line~3173 Error detected in Object=BUILDINGSURFACE:DETAILED, name=L1-101-SALESAISLEBULK_SRF_1
   **   ~~~   ** Field [Construction Name] is required but was blank
   ************* IDF Context for following error/warning message:
   ************* Note -- lines truncated at 300 characters, if necessary...
   *************   3194 BuildingSurface:Detailed,
   ************* indicated Name=L1-101-SalesAisleBulk_Srf_2
   ************* Only last 3 lines before error line shown.....
   *************   3195     L1-101-SalesAisleBulk_Srf_2,  !- Name
   *************   3196     WALL,                    !- Surface Type
   *************   3197     ,                        !- Construction Name
   ** Severe  ** IP: IDF line~3197 Error detected in Object=BUILDINGSURFACE:DETAILED, name=L1-101-SALESAISLEBULK_SRF_2
   **   ~~~   ** Field [Construction Name] is required but was blank
   ************* IDF Context for following error/warning message:
   ************* Note -- lines truncated at 300 characters, if necessary...
   *************   3218 BuildingSurface:Detailed,
   ************* indicated Name=L1-101-SalesAisleBulk_Srf_3
   ************* Only last 3 lines before error line shown.....
   *************   3219     L1-101-SalesAisleBulk_Srf_3,  !- Name
   *************   3220     WALL,                    !- Surface Type
   *************   3221     ,                        !- Construction Name
   ** Severe  ** IP: IDF line~3221 Error detected in Object=BUILDINGSURFACE:DETAILED, name=L1-101-SALESAISLEBULK_SRF_3
   **   ~~~   ** Field [Construction Name] is required but was blank
   ************* IDF Context for following error/warning message:
   ************* Note -- lines truncated at 300 characters, if necessary...
   *************   3242 BuildingSurface:Detailed,
   ************* indicated Name=L1-101-SalesAisleBulk_Srf_4
   ************* Only last 3 lines before error line shown.....
   *************   3243     L1-101-SalesAisleBulk_Srf_4,  !- Name
   *************   3244     WALL,                    !- Surface Type
   *************   3245     ,                        !- Construction Name
   ** Severe  ** IP: IDF line~3245 Error detected in Object=BUILDINGSURFACE:DETAILED, name=L1-101-SALESAISLEBULK_SRF_4
   **   ~~~   ** Field [Construction Name] is required but was blank
   ************* IDF Context for following error/warning message:
   ************* Note -- lines truncated at 300 characters, if necessary...
   *************   3266 BuildingSurface:Detailed,
   ************* indicated Name=L1-101-SalesAisleBulk_Srf_5
   ************* Only last 3 lines before error line shown.....
   *************   3267     L1-101-SalesAisleBulk_Srf_5,  !- Name
   *************   3268     WALL,                    !- Surface Type
   *************   3269     ,                        !- Construction Name
   ** Severe  ** IP: IDF line~3269 Error detected in Object=BUILDINGSURFACE:DETAILED, name=L1-101-SALESAISLEBULK_SRF_5
   **   ~~~   ** Field [Construction Name] is required but was blank
   ************* IDF Context for following error/warning message:
   ************* Note -- lines truncated at 300 characters, if necessary...
   *************   3290 BuildingSurface:Detailed,
   ************* indicated Name=L1-101-SalesAisleBulk_Srf_6
   ************* Only last 3 lines before error line shown.....
   *************   3291     L1-101-SalesAisleBulk_Srf_6,  !- Name
   *************   3292     Roof,                    !- Surface Type
   *************   3293     ,                        !- Construction Name
   ** Severe  ** IP: IDF line~3293 Error detected in Object=BUILDINGSURFACE:DETAILED, name=L1-101-SALESAISLEBULK_SRF_6
   **   ~~~   ** Field [Construction Name] is required but was blank
   ************* IDF Context for following error/warning message:
   ************* Note -- lines truncated at 300 characters, if necessary...
   *************   3314 BuildingSurface:Detailed,
   ************* indicated Name=L1-101-SalesCirculation1_Srf_0
   ************* Only last 3 lines before error line shown.....
   *************   3315     L1-101-SalesCirculation1_Srf_0,  !- Name
   *************   3316     FLOOR,                   !- Surface Type
   *************   3317     ,                        !- Construction Name
   ** Severe  ** IP: IDF line~3317 Error detected in Object=BUILDINGSURFACE:DETAILED, name=L1-101-SALESCIRCULATION1_SRF_0
   **   ~~~   ** Field [Construction Name] is required but was blank
   ************* IDF Context for following error/warning message:
   ************* Note -- lines truncated at 300 characters, if necessary...
   *************   3344 BuildingSurface:Detailed,
   ************* indicated Name=L1-101-SalesCirculation1_Srf_1
   ************* Only last 3 lines before error line shown.....
   *************   3345     L1-101-SalesCirculation1_Srf_1,  !- Name
   *************   3346     WALL,                    !- Surface Type
   *************   3347     ,                        !- Construction Name
   ** Severe  ** IP: IDF line~3347 Error detected in Object=BUILDINGSURFACE:DETAILED, name=L1-101-SALESCIRCULATION1_SRF_1
   **   ~~~   ** Field [Construction Name] is required but was blank
   ************* IDF Context for following error/warning message:
   ************* Note -- lines truncated at 300 characters, if necessary...
   *************   3368 BuildingSurface:Detailed,
   ************* indicated Name=L1-101-SalesCirculation1_Srf_2
   ************* Only last 3 lines before error line shown.....
   *************   3369     L1-101-SalesCirculation1_Srf_2,  !- Name
   *************   3370     WALL,                    !- Surface Type
   *************   3371     ,                        !- Construction Name
   ** Severe  ** IP: IDF line~3371 Error detected in Object=BUILDINGSURFACE:DETAILED, name=L1-101-SALESCIRCULATION1_SRF_2
   **   ~~~   ** Field [Construction Name] is required but was blank
   ************* IDF Context for following error/warning message:
   ************* Note -- lines truncated at 300 characters, if necessary...
   *************   3392 BuildingSurface:Detailed,
   ************* indicated Name=L1-101-SalesCirculation1_Srf_3
   ************* Only last 3 lines before error line shown.....
   *************   3393     L1-101-SalesCirculation1_Srf_3,  !- Name
   *************   3394     WALL,                    !- Surface Type
   *************   3395     ,                        !- Construction Name
   ** Severe  ** IP: IDF line~3395 Error detected in Object=BUILDINGSURFACE:DETAILED, name=L1-101-SALESCIRCULATION1_SRF_3
   **   ~~~   ** Field [Construction Name] is required but was blank
   ************* IDF Context for following error/warning message:
   ************* Note -- lines truncated at 300 characters, if necessary...
   *************   3416 BuildingSurface:Detailed,
   ************* indicated Name=L1-101-SalesCirculation1_Srf_4
   ************* Only last 3 lines before error line shown.....
   *************   3417     L1-101-SalesCirculation1_Srf_4,  !- Name
   *************   3418     WALL,                    !- Surface Type
   *************   3419     ,                        !- Construction Name
   ** Severe  ** IP: IDF line~3419 Error detected in Object=BUILDINGSURFACE:DETAILED, name=L1-101-SALESCIRCULATION1_SRF_4
   **   ~~~   ** Field [Construction Name] is required but was blank
   ************* IDF Context for following error/warning message:
   ************* Note -- lines truncated at 300 characters, if necessary...
   *************   3440 BuildingSurface:Detailed,
   ************* indicated Name=L1-101-SalesCirculation1_Srf_5
   ************* Only last 3 lines before error line shown.....
   *************   3441     L1-101-SalesCirculation1_Srf_5,  !- Name
   *************   3442     WALL,                    !- Surface Type
   *************   3443     ,                        !- Construction Name
   ** Severe  ** IP: IDF line~3443 Error detected in Object=BUILDINGSURFACE:DETAILED, name=L1-101-SALESCIRCULATION1_SRF_5
   **   ~~~   ** Field [Construction Name] is required but was blank
   ************* IDF Context for following error/warning message:
   ************* Note -- lines truncated at 300 characters, if necessary...
   *************   3464 BuildingSurface:Detailed,
   ************* indicated Name=L1-101-SalesCirculation1_Srf_6
   ************* Only last 3 lines before error line shown.....
   *************   3465     L1-101-SalesCirculation1_Srf_6,  !- Name
   *************   3466     WALL,                    !- Surface Type
   *************   3467     ,                        !- Construction Name
   ** Severe  ** IP: IDF line~3467 Error detected in Object=BUILDINGSURFACE:DETAILED, name=L1-101-SALESCIRCULATION1_SRF_6
   **   ~~~   ** Field [Construction Name] is required but was blank
   ************* IDF Context for following error/warning message:
   ************* Note -- lines truncated at 300 characters, if necessary...
   *************   3488 BuildingSurface:Detailed,
   ************* indicated Name=L1-101-SalesCirculation1_Srf_7
   ************* Only last 3 lines before error line shown.....
   *************   3489     L1-101-SalesCirculation1_Srf_7,  !- Name
   *************   3490     WALL,                    !- Surface Type
   *************   3491     ,                        !- Construction Name
   ** Severe  ** IP: IDF line~3491 Error detected in Object=BUILDINGSURFACE:DETAILED, name=L1-101-SALESCIRCULATION1_SRF_7
   **   ~~~   ** Field [Construction Name] is required but was blank
   ************* IDF Context for following error/warning message:
   ************* Note -- lines truncated at 300 characters, if necessary...
   *************   3512 BuildingSurface:Detailed,
   ************* indicated Name=L1-101-SalesCirculation1_Srf_8
   ************* Only last 3 lines before error line shown.....
   *************   3513     L1-101-SalesCirculation1_Srf_8,  !- Name
   *************   3514     Roof,                    !- Surface Type
   *************   3515     ,                        !- Construction Name
   ** Severe  ** IP: IDF line~3515 Error detected in Object=BUILDINGSURFACE:DETAILED, name=L1-101-SALESCIRCULATION1_SRF_8
   **   ~~~   ** Field [Construction Name] is required but was blank
   ************* IDF Context for following error/warning message:
   ************* Note -- lines truncated at 300 characters, if necessary...
   *************   3542 BuildingSurface:Detailed,
   ************* indicated Name=L1-101-SalesCirculation10_Srf_0
   ************* Only last 3 lines before error line shown.....
   *************   3543     L1-101-SalesCirculation10_Srf_0,  !- Name
   *************   3544     FLOOR,                   !- Surface Type
   *************   3545     ,                        !- Construction Name
   ** Severe  ** IP: IDF line~3545 Error detected in Object=BUILDINGSURFACE:DETAILED, name=L1-101-SALESCIRCULATION10_SRF_0
   **   ~~~   ** Field [Construction Name] is required but was blank
   ************* IDF Context for following error/warning message:
   ************* Note -- lines truncated at 300 characters, if necessary...
   *************   3572 BuildingSurface:Detailed,
   ************* indicated Name=L1-101-SalesCirculation10_Srf_1
   ************* Only last 3 lines before error line shown.....
   *************   3573     L1-101-SalesCirculation10_Srf_1,  !- Name
   *************   3574     WALL,                    !- Surface Type
   *************   3575     ,                        !- Construction Name
   ** Severe  ** IP: IDF line~3575 Error detected in Object=BUILDINGSURFACE:DETAILED, name=L1-101-SALESCIRCULATION10_SRF_1
   **   ~~~   ** Field [Construction Name] is required but was blank
   ************* IDF Context for following error/warning message:
   ************* Note -- lines truncated at 300 characters, if necessary...
   *************   3596 BuildingSurface:Detailed,
   ************* indicated Name=L1-101-SalesCirculation10_Srf_2
   ************* Only last 3 lines before error line shown.....
   *************   3597     L1-101-SalesCirculation10_Srf_2,  !- Name
   *************   3598     WALL,                    !- Surface Type
   *************   3599     ,                        !- Construction Name
   ** Severe  ** IP: IDF line~3599 Error detected in Object=BUILDINGSURFACE:DETAILED, name=L1-101-SALESCIRCULATION10_SRF_2
   **   ~~~   ** Field [Construction Name] is required but was blank
   ************* IDF Context for following error/warning message:
   ************* Note -- lines truncated at 300 characters, if necessary...
   *************   3620 BuildingSurface:Detailed,
   ************* indicated Name=L1-101-SalesCirculation10_Srf_3
   ************* Only last 3 lines before error line shown.....
   *************   3621     L1-101-SalesCirculation10_Srf_3,  !- Name
   *************   3622     WALL,                    !- Surface Type
   *************   3623     ,                        !- Construction Name
   ** Severe  ** IP: IDF line~3623 Error detected in Object=BUILDINGSURFACE:DETAILED, name=L1-101-SALESCIRCULATION10_SRF_3
   **   ~~~   ** Field [Construction Name] is required but was blank
   ************* IDF Context for following error/warning message:
   ************* Note -- lines truncated at 300 characters, if necessary...
   *************   3644 BuildingSurface:Detailed,
   ************* indicated Name=L1-101-SalesCirculation10_Srf_4
   ************* Only last 3 lines before error line shown.....
   *************   3645     L1-101-SalesCirculation10_Srf_4,  !- Name
   *************   3646     WALL,                    !- Surface Type
   *************   3647     ,                        !- Construction Name
   ** Severe  ** IP: IDF line~3647 Error detected in Object=BUILDINGSURFACE:DETAILED, name=L1-101-SALESCIRCULATION10_SRF_4
   **   ~~~   ** Field [Construction Name] is required but was blank
   ************* IDF Context for following error/warning message:
   ************* Note -- lines truncated at 300 characters, if necessary...
   *************   3668 BuildingSurface:Detailed,
   ************* indicated Name=L1-101-SalesCirculation10_Srf_5
   ************* Only last 3 lines before error line shown.....
   *************   3669     L1-101-SalesCirculation10_Srf_5,  !- Name
   *************   3670     WALL,                    !- Surface Type
   *************   3671     ,                        !- Construction Name
   ** Severe  ** IP: IDF line~3671 Error detected in Object=BUILDINGSURFACE:DETAILED, name=L1-101-SALESCIRCULATION10_SRF_5
   **   ~~~   ** Field [Construction Name] is required but was blank
   ************* IDF Context for following error/warning message:
   ************* Note -- lines truncated at 300 characters, if necessary...
   *************   3692 BuildingSurface:Detailed,
   ************* indicated Name=L1-101-SalesCirculation10_Srf_6
   ************* Only last 3 lines before error line shown.....
   *************   3693     L1-101-SalesCirculation10_Srf_6,  !- Name
   *************   3694     WALL,                    !- Surface Type
   *************   3695     ,                        !- Construction Name
   ** Severe  ** IP: IDF line~3695 Error detected in Object=BUILDINGSURFACE:DETAILED, name=L1-101-SALESCIRCULATION10_SRF_6
   **   ~~~   ** Field [Construction Name] is required but was blank
   ************* IDF Context for following error/warning message:
   ************* Note -- lines truncated at 300 characters, if necessary...
   *************   3716 BuildingSurface:Detailed,
   ************* indicated Name=L1-101-SalesCirculation10_Srf_7
   ************* Only last 3 lines before error line shown.....
   *************   3717     L1-101-SalesCirculation10_Srf_7,  !- Name
   *************   3718     Roof,                    !- Surface Type
   *************   3719     ,                        !- Construction Name
   ** Severe  ** IP: IDF line~3719 Error detected in Object=BUILDINGSURFACE:DETAILED, name=L1-101-SALESCIRCULATION10_SRF_7
   **   ~~~   ** Field [Construction Name] is required but was blank
   ************* IDF Context for following error/warning message:
   ************* Note -- lines truncated at 300 characters, if necessary...
   *************   3746 BuildingSurface:Detailed,
   ************* indicated Name=L1-101-SalesCirculation2_Srf_0
   ************* Only last 3 lines before error line shown.....
   *************   3747     L1-101-SalesCirculation2_Srf_0,  !- Name
   *************   3748     FLOOR,                   !- Surface Type
   *************   3749     ,                        !- Construction Name
   ** Severe  ** IP: IDF line~3749 Error detected in Object=BUILDINGSURFACE:DETAILED, name=L1-101-SALESCIRCULATION2_SRF_0
   **   ~~~   ** Field [Construction Name] is required but was blank
   ************* IDF Context for following error/warning message:
   ************* Note -- lines truncated at 300 characters, if necessary...
   *************   3782 BuildingSurface:Detailed,
   ************* indicated Name=L1-101-SalesCirculation2_Srf_1
   ************* Only last 3 lines before error line shown.....
   *************   3783     L1-101-SalesCirculation2_Srf_1,  !- Name
   *************   3784     WALL,                    !- Surface Type
   *************   3785     ,                        !- Construction Name
   ** Severe  ** IP: IDF line~3785 Error detected in Object=BUILDINGSURFACE:DETAILED, name=L1-101-SALESCIRCULATION2_SRF_1
   **   ~~~   ** Field [Construction Name] is required but was blank
   ************* IDF Context for following error/warning message:
   ************* Note -- lines truncated at 300 characters, if necessary...
   *************   3806 BuildingSurface:Detailed,
   ************* indicated Name=L1-101-SalesCirculation2_Srf_10
   ************* Only last 3 lines before error line shown.....
   *************   3807     L1-101-SalesCirculation2_Srf_10,  !- Name
   *************   3808     WALL,                    !- Surface Type
   *************   3809     ,                        !- Construction Name
   ** Severe  ** IP: IDF line~3809 Error detected in Object=BUILDINGSURFACE:DETAILED, name=L1-101-SALESCIRCULATION2_SRF_10
   **   ~~~   ** Field [Construction Name] is required but was blank
   ************* IDF Context for following error/warning message:
   ************* Note -- lines truncated at 300 characters, if necessary...
   *************   3830 BuildingSurface:Detailed,
   ************* indicated Name=L1-101-SalesCirculation2_Srf_11
   ************* Only last 3 lines before error line shown.....
   *************   3831     L1-101-SalesCirculation2_Srf_11,  !- Name
   *************   3832     WALL,                    !- Surface Type
   *************   3833     ,                        !- Construction Name
   ** Severe  ** IP: IDF line~3833 Error detected in Object=BUILDINGSURFACE:DETAILED, name=L1-101-SALESCIRCULATION2_SRF_11
[...]
   ************* indicated Name=M-BakeryFreezer_Srf_0
   ************* Only last 3 lines before error line shown.....
   *************  29490     M-BakeryFreezer_Srf_0,   !- Name
   *************  29491     FLOOR,                   !- Surface Type
   *************  29492     ,                        !- Construction Name
   ** Severe  ** IP: IDF line~29492 Error detected in Object=BUILDINGSURFACE:DETAILED, name=M-BAKERYFREEZER_SRF_0
   **   ~~~   ** Field [Construction Name] is required but was blank
   ************* IDF Context for following error/warning message:
   ************* Note -- lines truncated at 300 characters, if necessary...
   *************  29513 BuildingSurface:Detailed,
   ************* indicated Name=M-BakeryFreezer_Srf_1
   ************* Only last 3 lines before error line shown.....
   *************  29514     M-BakeryFreezer_Srf_1,   !- Name
   *************  29515     WALL,                    !- Surface Type
   *************  29516     ,                        !- Construction Name
   ** Severe  ** IP: IDF line~29516 Error detected in Object=BUILDINGSURFACE:DETAILED, name=M-BAKERYFREEZER_SRF_1
   **   ~~~   ** Field [Construction Name] is required but was blank
   ************* IDF Context for following error/warning message:
   ************* Note -- lines truncated at 300 characters, if necessary...
   *************  29537 BuildingSurface:Detailed,
   ************* indicated Name=M-BakeryFreezer_Srf_2
   ************* Only last 3 lines before error line shown.....
   *************  29538     M-BakeryFreezer_Srf_2,   !- Name
   *************  29539     WALL,                    !- Surface Type
   *************  29540     ,                        !- Construction Name
   ** Severe  ** IP: IDF line~29540 Error detected in Object=BUILDINGSURFACE:DETAILED, name=M-BAKERYFREEZER_SRF_2
   **   ~~~   ** Field [Construction Name] is required but was blank
   ************* IDF Context for following error/warning message:
   ************* Note -- lines truncated at 300 characters, if necessary...
   *************  29561 BuildingSurface:Detailed,
   ************* indicated Name=M-BakeryFreezer_Srf_3
   ************* Only last 3 lines before error line shown.....
   *************  29562     M-BakeryFreezer_Srf_3,   !- Name
   *************  29563     WALL,                    !- Surface Type
   *************  29564     ,                        !- Construction Name
   ** Severe  ** IP: IDF line~29564 Error detected in Object=BUILDINGSURFACE:DETAILED, name=M-BAKERYFREEZER_SRF_3
   **   ~~~   ** Field [Construction Name] is required but was blank
   ************* IDF Context for following error/warning message:
   ************* Note -- lines truncated at 300 characters, if necessary...
   *************  29585 BuildingSurface:Detailed,
   ************* indicated Name=M-BakeryFreezer_Srf_4
   ************* Only last 3 lines before error line shown.....
   *************  29586     M-BakeryFreezer_Srf_4,   !- Name
   *************  29587     WALL,                    !- Surface Type
   *************  29588     ,                        !- Construction Name
   ** Severe  ** IP: IDF line~29588 Error detected in Object=BUILDINGSURFACE:DETAILED, name=M-BAKERYFREEZER_SRF_4
   **   ~~~   ** Field [Construction Name] is required but was blank
   ************* IDF Context for following error/warning message:
   ************* Note -- lines truncated at 300 characters, if necessary...
   *************  29609 BuildingSurface:Detailed,
   ************* indicated Name=M-BakeryFreezer_Srf_5
   ************* Only last 3 lines before error line shown.....
   *************  29610     M-BakeryFreezer_Srf_5,   !- Name
   *************  29611     Roof,                    !- Surface Type
   *************  29612     ,                        !- Construction Name
   ** Severe  ** IP: IDF line~29612 Error detected in Object=BUILDINGSURFACE:DETAILED, name=M-BAKERYFREEZER_SRF_5
   **   ~~~   ** Field [Construction Name] is required but was blank
   ************* IDF Context for following error/warning message:
   ************* Note -- lines truncated at 300 characters, if necessary...
   *************  29633 BuildingSurface:Detailed,
   ************* indicated Name=M-ExgWomen_Srf_0
   ************* Only last 3 lines before error line shown.....
   *************  29634     M-ExgWomen_Srf_0,        !- Name
   *************  29635     FLOOR,                   !- Surface Type
   *************  29636     ,                        !- Construction Name
   ** Severe  ** IP: IDF line~29636 Error detected in Object=BUILDINGSURFACE:DETAILED, name=M-EXGWOMEN_SRF_0
   **   ~~~   ** Field [Construction Name] is required but was blank
   ************* IDF Context for following error/warning message:
   ************* Note -- lines truncated at 300 characters, if necessary...
   *************  29657 BuildingSurface:Detailed,
   ************* indicated Name=M-ExgWomen_Srf_1
   ************* Only last 3 lines before error line shown.....
   *************  29658     M-ExgWomen_Srf_1,        !- Name
   *************  29659     WALL,                    !- Surface Type
   *************  29660     ,                        !- Construction Name
   ** Severe  ** IP: IDF line~29660 Error detected in Object=BUILDINGSURFACE:DETAILED, name=M-EXGWOMEN_SRF_1
   **   ~~~   ** Field [Construction Name] is required but was blank
   ************* IDF Context for following error/warning message:
   ************* Note -- lines truncated at 300 characters, if necessary...
   *************  29681 BuildingSurface:Detailed,
   ************* indicated Name=M-ExgWomen_Srf_2
   ************* Only last 3 lines before error line shown.....
   *************  29682     M-ExgWomen_Srf_2,        !- Name
   *************  29683     WALL,                    !- Surface Type
   *************  29684     ,                        !- Construction Name
   ** Severe  ** IP: IDF line~29684 Error detected in Object=BUILDINGSURFACE:DETAILED, name=M-EXGWOMEN_SRF_2
   **   ~~~   ** Field [Construction Name] is required but was blank
   ************* IDF Context for following error/warning message:
   ************* Note -- lines truncated at 300 characters, if necessary...
   *************  29705 BuildingSurface:Detailed,
   ************* indicated Name=M-ExgWomen_Srf_3
   ************* Only last 3 lines before error line shown.....
   *************  29706     M-ExgWomen_Srf_3,        !- Name
   *************  29707     WALL,                    !- Surface Type
   *************  29708     ,                        !- Construction Name
   ** Severe  ** IP: IDF line~29708 Error detected in Object=BUILDINGSURFACE:DETAILED, name=M-EXGWOMEN_SRF_3
   **   ~~~   ** Field [Construction Name] is required but was blank
   ************* IDF Context for following error/warning message:
   ************* Note -- lines truncated at 300 characters, if necessary...
   *************  29729 BuildingSurface:Detailed,
   ************* indicated Name=M-ExgWomen_Srf_4
   ************* Only last 3 lines before error line shown.....
   *************  29730     M-ExgWomen_Srf_4,        !- Name
   *************  29731     WALL,                    !- Surface Type
   *************  29732     ,                        !- Construction Name
   ** Severe  ** IP: IDF line~29732 Error detected in Object=BUILDINGSURFACE:DETAILED, name=M-EXGWOMEN_SRF_4
   **   ~~~   ** Field [Construction Name] is required but was blank
   ************* IDF Context for following error/warning message:
   ************* Note -- lines truncated at 300 characters, if necessary...
   *************  29753 BuildingSurface:Detailed,
   ************* indicated Name=M-ExgWomen_Srf_5
   ************* Only last 3 lines before error line shown.....
   *************  29754     M-ExgWomen_Srf_5,        !- Name
   *************  29755     Roof,                    !- Surface Type
   *************  29756     ,                        !- Construction Name
   ** Severe  ** IP: IDF line~29756 Error detected in Object=BUILDINGSURFACE:DETAILED, name=M-EXGWOMEN_SRF_5
   **   ~~~   ** Field [Construction Name] is required but was blank
   ************* IDF Context for following error/warning message:
   ************* Note -- lines truncated at 300 characters, if necessary...
   *************  29777 BuildingSurface:Detailed,
   ************* indicated Name=_Srf_0_Dup
   ************* Only last 3 lines before error line shown.....
   *************  29778     _Srf_0_Dup,              !- Name
   *************  29779     FLOOR,                   !- Surface Type
   *************  29780     ,                        !- Construction Name
   ** Severe  ** IP: IDF line~29780 Error detected in Object=BUILDINGSURFACE:DETAILED, name=_SRF_0_DUP
   **   ~~~   ** Field [Construction Name] is required but was blank
   ************* IDF Context for following error/warning message:
   ************* Note -- lines truncated at 300 characters, if necessary...
   *************  29801 BuildingSurface:Detailed,
   ************* indicated Name=_Srf_0_Dup_Dup
   ************* Only last 3 lines before error line shown.....
   *************  29802     _Srf_0_Dup_Dup,          !- Name
   *************  29803     FLOOR,                   !- Surface Type
   *************  29804     ,                        !- Construction Name
   ** Severe  ** IP: IDF line~29804 Error detected in Object=BUILDINGSURFACE:DETAILED, name=_SRF_0_DUP_DUP
   **   ~~~   ** Field [Construction Name] is required but was blank
   ************* IDF Context for following error/warning message:
   ************* Note -- lines truncated at 300 characters, if necessary...
   *************  29825 BuildingSurface:Detailed,
   ************* indicated Name=_Srf_0_Dup_Dup_Dup
   ************* Only last 3 lines before error line shown.....
   *************  29826     _Srf_0_Dup_Dup_Dup,      !- Name
   *************  29827     FLOOR,                   !- Surface Type
   *************  29828     ,                        !- Construction Name
   ** Severe  ** IP: IDF line~29828 Error detected in Object=BUILDINGSURFACE:DETAILED, name=_SRF_0_DUP_DUP_DUP
   **   ~~~   ** Field [Construction Name] is required but was blank
   ************* IDF Context for following error/warning message:
   ************* Note -- lines truncated at 300 characters, if necessary...
   *************  29849 BuildingSurface:Detailed,
   ************* indicated Name=_Srf_0_Dup_Dup_Dup_Dup
   ************* Only last 3 lines before error line shown.....
   *************  29850     _Srf_0_Dup_Dup_Dup_Dup,  !- Name
   *************  29851     FLOOR,                   !- Surface Type
   *************  29852     ,                        !- Construction Name
   ** Severe  ** IP: IDF line~29852 Error detected in Object=BUILDINGSURFACE:DETAILED, name=_SRF_0_DUP_DUP_DUP_DUP
   **   ~~~   ** Field [Construction Name] is required but was blank
   ************* IDF Context for following error/warning message:
   ************* Note -- lines truncated at 300 characters, if necessary...
   *************  29873 BuildingSurface:Detailed,
   ************* indicated Name=_Srf_1
   ************* Only last 3 lines before error line shown.....
   *************  29874     _Srf_1,                  !- Name
   *************  29875     WALL,                    !- Surface Type
   *************  29876     ,                        !- Construction Name
   ** Severe  ** IP: IDF line~29876 Error detected in Object=BUILDINGSURFACE:DETAILED, name=_SRF_1
   **   ~~~   ** Field [Construction Name] is required but was blank
   ************* IDF Context for following error/warning message:
   ************* Note -- lines truncated at 300 characters, if necessary...
   *************  29897 BuildingSurface:Detailed,
   ************* indicated Name=_Srf_2
   ************* Only last 3 lines before error line shown.....
   *************  29898     _Srf_2,                  !- Name
   *************  29899     WALL,                    !- Surface Type
   *************  29900     ,                        !- Construction Name
   ** Severe  ** IP: IDF line~29900 Error detected in Object=BUILDINGSURFACE:DETAILED, name=_SRF_2
   **   ~~~   ** Field [Construction Name] is required but was blank
   ************* IDF Context for following error/warning message:
   ************* Note -- lines truncated at 300 characters, if necessary...
   *************  29921 BuildingSurface:Detailed,
   ************* indicated Name=_Srf_3
   ************* Only last 3 lines before error line shown.....
   *************  29922     _Srf_3,                  !- Name
   *************  29923     WALL,                    !- Surface Type
   *************  29924     ,                        !- Construction Name
   ** Severe  ** IP: IDF line~29924 Error detected in Object=BUILDINGSURFACE:DETAILED, name=_SRF_3
   **   ~~~   ** Field [Construction Name] is required but was blank
   ************* IDF Context for following error/warning message:
   ************* Note -- lines truncated at 300 characters, if necessary...
   *************  29945 BuildingSurface:Detailed,
   ************* indicated Name=_Srf_4
   ************* Only last 3 lines before error line shown.....
   *************  29946     _Srf_4,                  !- Name
   *************  29947     WALL,                    !- Surface Type
   *************  29948     ,                        !- Construction Name
   ** Severe  ** IP: IDF line~29948 Error detected in Object=BUILDINGSURFACE:DETAILED, name=_SRF_4
   **   ~~~   ** Field [Construction Name] is required but was blank
   ************* IDF Context for following error/warning message:
   ************* Note -- lines truncated at 300 characters, if necessary...
   *************  29969 BuildingSurface:Detailed,
   ************* indicated Name=_Srf_5
   ************* Only last 3 lines before error line shown.....
   *************  29970     _Srf_5,                  !- Name
   *************  29971     Roof,                    !- Surface Type
   *************  29972     ,                        !- Construction Name
   ** Severe  ** IP: IDF line~29972 Error detected in Object=BUILDINGSURFACE:DETAILED, name=_SRF_5
   **   ~~~   ** Field [Construction Name] is required but was blank
   ************* IDF Context for following error/warning message:
   ************* Note -- lines truncated at 300 characters, if necessary...
   *************  29993 BuildingSurface:Detailed,
   ************* indicated Name=_Srf_0_Dup_Dup_Dup_Dup_Dup
   ************* Only last 3 lines before error line shown.....
   *************  29994     _Srf_0_Dup_Dup_Dup_Dup_Dup,  !- Name
   *************  29995     FLOOR,                   !- Surface Type
   *************  29996     ,                        !- Construction Name
   ** Severe  ** IP: IDF line~29996 Error detected in Object=BUILDINGSURFACE:DETAILED, name=_SRF_0_DUP_DUP_DUP_DUP_DUP
   **   ~~~   ** Field [Construction Name] is required but was blank
   ************* IDF Context for following error/warning message:
   ************* Note -- lines truncated at 300 characters, if necessary...
   *************  30017 BuildingSurface:Detailed,
   ************* indicated Name=_Srf_1_Dup
   ************* Only last 3 lines before error line shown.....
   *************  30018     _Srf_1_Dup,              !- Name
   *************  30019     WALL,                    !- Surface Type
   *************  30020     ,                        !- Construction Name
   ** Severe  ** IP: IDF line~30020 Error detected in Object=BUILDINGSURFACE:DETAILED, name=_SRF_1_DUP
   **   ~~~   ** Field [Construction Name] is required but was blank
   ************* IDF Context for following error/warning message:
   ************* Note -- lines truncated at 300 characters, if necessary...
   *************  30041 BuildingSurface:Detailed,
   ************* indicated Name=_Srf_2_Dup
   ************* Only last 3 lines before error line shown.....
   *************  30042     _Srf_2_Dup,              !- Name
   *************  30043     WALL,                    !- Surface Type
   *************  30044     ,                        !- Construction Name
   ** Severe  ** IP: IDF line~30044 Error detected in Object=BUILDINGSURFACE:DETAILED, name=_SRF_2_DUP
   **   ~~~   ** Field [Construction Name] is required but was blank
   ************* IDF Context for following error/warning message:
   ************* Note -- lines truncated at 300 characters, if necessary...
   *************  30065 BuildingSurface:Detailed,
   ************* indicated Name=_Srf_3_Dup
   ************* Only last 3 lines before error line shown.....
   *************  30066     _Srf_3_Dup,              !- Name
   *************  30067     WALL,                    !- Surface Type
   *************  30068     ,                        !- Construction Name
   ** Severe  ** IP: IDF line~30068 Error detected in Object=BUILDINGSURFACE:DETAILED, name=_SRF_3_DUP
   **   ~~~   ** Field [Construction Name] is required but was blank
   ************* IDF Context for following error/warning message:
   ************* Note -- lines truncated at 300 characters, if necessary...
   *************  30089 BuildingSurface:Detailed,
   ************* indicated Name=_Srf_4_Dup
   ************* Only last 3 lines before error line shown.....
   *************  30090     _Srf_4_Dup,              !- Name
   *************  30091     WALL,                    !- Surface Type
   *************  30092     ,                        !- Construction Name
   ** Severe  ** IP: IDF line~30092 Error detected in Object=BUILDINGSURFACE:DETAILED, name=_SRF_4_DUP
   **   ~~~   ** Field [Construction Name] is required but was blank
   ************* IDF Context for following error/warning message:
   ************* Note -- lines truncated at 300 characters, if necessary...
   *************  30113 BuildingSurface:Detailed,
   ************* indicated Name=_Srf_5_Dup
   ************* Only last 3 lines before error line shown.....
   *************  30114     _Srf_5_Dup,              !- Name
   *************  30115     Roof,                    !- Surface Type
   *************  30116     ,                        !- Construction Name
   ** Severe  ** IP: IDF line~30116 Error detected in Object=BUILDINGSURFACE:DETAILED, name=_SRF_5_DUP
   **   ~~~   ** Field [Construction Name] is required but was blank
   ************* IDF Context for following error/warning message:
   ************* Note -- lines truncated at 300 characters, if necessary...
   *************  30137 BuildingSurface:Detailed,
   ************* indicated Name=_Srf_0
   ************* Only last 3 lines before error line shown.....
   *************  30138     _Srf_0,                  !- Name
   *************  30139     FLOOR,                   !- Surface Type
   *************  30140     ,                        !- Construction Name
   ** Severe  ** IP: IDF line~30140 Error detected in Object=BUILDINGSURFACE:DETAILED, name=_SRF_0
   **   ~~~   ** Field [Construction Name] is required but was blank
   ** Severe  ** IP: Blank "required" fields found in input
   ** Severe  ** IP: Out of "range" values and/or blank required fields found in input
   **  Fatal  ** IP: Errors occurred on processing IDF file. Preceding condition(s) cause termination.
   ...Summary of Errors that led to program termination:
   ..... Reference severe error count=1169
   ..... Last severe error=IP: Out of "range" values and/or blank required fields found in input
   ************* Warning:  Node connection errors not checked - most system input has not been read (see previous warning).
   ************* Fatal error -- final processing.  Program exited before simulations began.  See previous error messages.
   ************* EnergyPlus Warmup Error Summary. During Warmup: 0 Warning; 0 Severe Errors.
   ************* EnergyPlus Sizing Error Summary. During Sizing: 0 Warning; 0 Severe Errors.
   ************* EnergyPlus Terminated--Fatal Error Detected. 0 Warning; 1169 Severe Errors; Elapsed Time=00hr 00min  0.83sec
