! Program Version,EnergyPlus, Version 8.6.0-198c6a3cff, YMD=2017.03.20 16:07,IDD_Version 8.6.0
! Output:Meter Objects (applicable to this run)
Output:Meter,Backstock:InteriorLights:Electricity,hourly; !- [J]
Output:Meter:Cumulative,Backstock:InteriorLights:Electricity,hourly; !- [J]
Output:Meter,Beer Cage:InteriorLights:Electricity,hourly; !- [J]
Output:Meter:Cumulative,Beer Cage:InteriorLights:Electricity,hourly; !- [J]
Output:Meter,BOH:InteriorEquipment:Electricity,hourly; !- [J]
Output:Meter:Cumulative,BOH:InteriorEquipment:Electricity,hourly; !- [J]
Output:Meter,BOH:InteriorLights:Electricity,hourly; !- [J]
Output:Meter:Cumulative,BOH:InteriorLights:Electricity,hourly; !- [J]
Output:Meter,Break Room:InteriorEquipment:Electricity,hourly; !- [J]
Output:Meter:Cumulative,Break Room:InteriorEquipment:Electricity,hourly; !- [J]
Output:Meter,Carbon Equivalent:Facility,hourly; !- [kg]
Output:Meter:Cumulative,Carbon Equivalent:Facility,hourly; !- [kg]
Output:Meter,CarbonEquivalentEmissions:Carbon Equivalent,hourly; !- [kg]
Output:Meter:Cumulative,CarbonEquivalentEmissions:Carbon Equivalent,hourly; !- [kg]
Output:Meter,Checkout:InteriorEquipment:Electricity,hourly; !- [J]
Output:Meter:Cumulative,Checkout:InteriorEquipment:Electricity,hourly; !- [J]
Output:Meter,Checkout:InteriorLights:Electricity,hourly; !- [J]
Output:Meter:Cumulative,Checkout:InteriorLights:Electricity,hourly; !- [J]
Output:Meter,Coffee/Bakery:InteriorEquipment:Electricity,hourly; !- [J]
Output:Meter:Cumulative,Coffee/Bakery:InteriorEquipment:Electricity,hourly; !- [J]
Output:Meter,Coffee/Bakery:InteriorLights:Electricity,hourly; !- [J]
Output:Meter:Cumulative,Coffee/Bakery:InteriorLights:Electricity,hourly; !- [J]
Output:Meter,Cogeneration:ElectricityNet,hourly; !- [J]
Output:Meter:Cumulative,Cogeneration:ElectricityNet,hourly; !- [J]
Output:Meter,Cogeneration:ElectricityPurchased,hourly; !- [J]
Output:Meter:Cumulative,Cogeneration:ElectricityPurchased,hourly; !- [J]
Output:Meter,Cogeneration:ElectricitySurplusSold,hourly; !- [J]
Output:Meter:Cumulative,Cogeneration:ElectricitySurplusSold,hourly; !- [J]
Output:Meter,Cooling:Electricity,hourly; !- [J]
Output:Meter:Cumulative,Cooling:Electricity,hourly; !- [J]
Output:Meter,Cooling:EnergyTransfer,hourly; !- [J]
Output:Meter:Cumulative,Cooling:EnergyTransfer,hourly; !- [J]
Output:Meter,Cooling:EnergyTransfer:Zone:L1-101-ENTRANCEEXIT THERMAL ZONE,hourly; !- [J]
Output:Meter:Cumulative,Cooling:EnergyTransfer:Zone:L1-101-ENTRANCEEXIT THERMAL ZONE,hourly; !- [J]
Output:Meter,Cooling:EnergyTransfer:Zone:L1-101-SALESAISLE1 THERMAL ZONE,hourly; !- [J]
Output:Meter:Cumulative,Cooling:EnergyTransfer:Zone:L1-101-SALESAISLE1 THERMAL ZONE,hourly; !- [J]
Output:Meter,Cooling:EnergyTransfer:Zone:L1-101-SALESAISLE10 THERMAL ZONE,hourly; !- [J]
Output:Meter:Cumulative,Cooling:EnergyTransfer:Zone:L1-101-SALESAISLE10 THERMAL ZONE,hourly; !- [J]
Output:Meter,Cooling:EnergyTransfer:Zone:L1-101-SALESAISLE2 THERMAL ZONE,hourly; !- [J]
Output:Meter:Cumulative,Cooling:EnergyTransfer:Zone:L1-101-SALESAISLE2 THERMAL ZONE,hourly; !- [J]
Output:Meter,Cooling:EnergyTransfer:Zone:L1-101-SALESAISLE3 THERMAL ZONE,hourly; !- [J]
Output:Meter:Cumulative,Cooling:EnergyTransfer:Zone:L1-101-SALESAISLE3 THERMAL ZONE,hourly; !- [J]
Output:Meter,Cooling:EnergyTransfer:Zone:L1-101-SALESAISLE4 THERMAL ZONE,hourly; !- [J]
Output:Meter:Cumulative,Cooling:EnergyTransfer:Zone:L1-101-SALESAISLE4 THERMAL ZONE,hourly; !- [J]
Output:Meter,Cooling:EnergyTransfer:Zone:L1-101-SALESAISLE5 THERMAL ZONE,hourly; !- [J]
Output:Meter:Cumulative,Cooling:EnergyTransfer:Zone:L1-101-SALESAISLE5 THERMAL ZONE,hourly; !- [J]
Output:Meter,Cooling:EnergyTransfer:Zone:L1-101-SALESAISLE6 THERMAL ZONE,hourly; !- [J]
Output:Meter:Cumulative,Cooling:EnergyTransfer:Zone:L1-101-SALESAISLE6 THERMAL ZONE,hourly; !- [J]
Output:Meter,Cooling:EnergyTransfer:Zone:L1-101-SALESAISLE7 THERMAL ZONE,hourly; !- [J]
Output:Meter:Cumulative,Cooling:EnergyTransfer:Zone:L1-101-SALESAISLE7 THERMAL ZONE,hourly; !- [J]
Output:Meter,Cooling:EnergyTransfer:Zone:L1-101-SALESAISLE8 THERMAL ZONE,hourly; !- [J]
Output:Meter:Cumulative,Cooling:EnergyTransfer:Zone:L1-101-SALESAISLE8 THERMAL ZONE,hourly; !- [J]
Output:Meter,Cooling:EnergyTransfer:Zone:L1-101-SALESAISLE9 THERMAL ZONE,hourly; !- [J]
Output:Meter:Cumulative,Cooling:EnergyTransfer:Zone:L1-101-SALESAISLE9 THERMAL ZONE,hourly; !- [J]
Output:Meter,Cooling:EnergyTransfer:Zone:L1-101-SALESAISLEBULK THERMAL ZONE,hourly; !- [J]
Output:Meter:Cumulative,Cooling:EnergyTransfer:Zone:L1-101-SALESAISLEBULK THERMAL ZONE,hourly; !- [J]
Output:Meter,Cooling:EnergyTransfer:Zone:L1-101-SALESCIRCULATION1 THERMAL ZONE,hourly; !- [J]
Output:Meter:Cumulative,Cooling:EnergyTransfer:Zone:L1-101-SALESCIRCULATION1 THERMAL ZONE,hourly; !- [J]
Output:Meter,Cooling:EnergyTransfer:Zone:L1-101-SALESCIRCULATION10 THERMAL ZONE,hourly; !- [J]
Output:Meter:Cumulative,Cooling:EnergyTransfer:Zone:L1-101-SALESCIRCULATION10 THERMAL ZONE,hourly; !- [J]
Output:Meter,Cooling:EnergyTransfer:Zone:L1-101-SALESCIRCULATION2 THERMAL ZONE,hourly; !- [J]
Output:Meter:Cumulative,Cooling:EnergyTransfer:Zone:L1-101-SALESCIRCULATION2 THERMAL ZONE,hourly; !- [J]
Output:Meter,Cooling:EnergyTransfer:Zone:L1-101-SALESCIRCULATION3 THERMAL ZONE,hourly; !- [J]
Output:Meter:Cumulative,Cooling:EnergyTransfer:Zone:L1-101-SALESCIRCULATION3 THERMAL ZONE,hourly; !- [J]
Output:Meter,Cooling:EnergyTransfer:Zone:L1-101-SALESCIRCULATION4 THERMAL ZONE,hourly; !- [J]
Output:Meter:Cumulative,Cooling:EnergyTransfer:Zone:L1-101-SALESCIRCULATION4 THERMAL ZONE,hourly; !- [J]
Output:Meter,Cooling:EnergyTransfer:Zone:L1-101-SALESCIRCULATION5 THERMAL ZONE,hourly; !- [J]
Output:Meter:Cumulative,Cooling:EnergyTransfer:Zone:L1-101-SALESCIRCULATION5 THERMAL ZONE,hourly; !- [J]
Output:Meter,Cooling:EnergyTransfer:Zone:L1-101-SALESCIRCULATION6 THERMAL ZONE,hourly; !- [J]
Output:Meter:Cumulative,Cooling:EnergyTransfer:Zone:L1-101-SALESCIRCULATION6 THERMAL ZONE,hourly; !- [J]
Output:Meter,Cooling:EnergyTransfer:Zone:L1-101-SALESCIRCULATION7 THERMAL ZONE,hourly; !- [J]
Output:Meter:Cumulative,Cooling:EnergyTransfer:Zone:L1-101-SALESCIRCULATION7 THERMAL ZONE,hourly; !- [J]
Output:Meter,Cooling:EnergyTransfer:Zone:L1-101-SALESCIRCULATION8 THERMAL ZONE,hourly; !- [J]
Output:Meter:Cumulative,Cooling:EnergyTransfer:Zone:L1-101-SALESCIRCULATION8 THERMAL ZONE,hourly; !- [J]
Output:Meter,Cooling:EnergyTransfer:Zone:L1-101-SALESCIRCULATION9 THERMAL ZONE,hourly; !- [J]
Output:Meter:Cumulative,Cooling:EnergyTransfer:Zone:L1-101-SALESCIRCULATION9 THERMAL ZONE,hourly; !- [J]
Output:Meter,Cooling:EnergyTransfer:Zone:L1-101-SALESCIRCULATIONMEATSEAFOOD THERMAL ZONE,hourly; !- [J]
Output:Meter:Cumulative,Cooling:EnergyTransfer:Zone:L1-101-SALESCIRCULATIONMEATSEAFOOD THERMAL ZONE,hourly; !- [J]
Output:Meter,Cooling:EnergyTransfer:Zone:L1-101-SALESREFRIGERATIONAISLE1 THERMAL ZONE,hourly; !- [J]
Output:Meter:Cumulative,Cooling:EnergyTransfer:Zone:L1-101-SALESREFRIGERATIONAISLE1 THERMAL ZONE,hourly; !- [J]
Output:Meter,Cooling:EnergyTransfer:Zone:L1-101-SALESREFRIGERATIONAISLE2 THERMAL ZONE,hourly; !- [J]
Output:Meter:Cumulative,Cooling:EnergyTransfer:Zone:L1-101-SALESREFRIGERATIONAISLE2 THERMAL ZONE,hourly; !- [J]
Output:Meter,Cooling:EnergyTransfer:Zone:L1-101-SALESREFRIGERATIONAISLE3 THERMAL ZONE,hourly; !- [J]
Output:Meter:Cumulative,Cooling:EnergyTransfer:Zone:L1-101-SALESREFRIGERATIONAISLE3 THERMAL ZONE,hourly; !- [J]
Output:Meter,Cooling:EnergyTransfer:Zone:L1-101-SALESREFRIGERATIONAISLE4 THERMAL ZONE,hourly; !- [J]
Output:Meter:Cumulative,Cooling:EnergyTransfer:Zone:L1-101-SALESREFRIGERATIONAISLE4 THERMAL ZONE,hourly; !- [J]
Output:Meter,Cooling:EnergyTransfer:Zone:L1-101-SALESREFRIGERATIONAISLE5 THERMAL ZONE,hourly; !- [J]
Output:Meter:Cumulative,Cooling:EnergyTransfer:Zone:L1-101-SALESREFRIGERATIONAISLE5 THERMAL ZONE,hourly; !- [J]
Output:Meter,Cooling:EnergyTransfer:Zone:L1-101-SALESREFRIGERATIONAISLE6 THERMAL ZONE,hourly; !- [J]
Output:Meter:Cumulative,Cooling:EnergyTransfer:Zone:L1-101-SALESREFRIGERATIONAISLE6 THERMAL ZONE,hourly; !- [J]
Output:Meter,Cooling:EnergyTransfer:Zone:L1-101-SALESREFRIGERATIONAISLE7 THERMAL ZONE,hourly; !- [J]
Output:Meter:Cumulative,Cooling:EnergyTransfer:Zone:L1-101-SALESREFRIGERATIONAISLE7 THERMAL ZONE,hourly; !- [J]
Output:Meter,Cooling:EnergyTransfer:Zone:L1-101-SALESREFRIGERATIONENDCAP1 THERMAL ZONE,hourly; !- [J]
Output:Meter:Cumulative,Cooling:EnergyTransfer:Zone:L1-101-SALESREFRIGERATIONENDCAP1 THERMAL ZONE,hourly; !- [J]
Output:Meter,Cooling:EnergyTransfer:Zone:L1-101-SALESREFRIGERATIONENDCAP2 THERMAL ZONE,hourly; !- [J]
Output:Meter:Cumulative,Cooling:EnergyTransfer:Zone:L1-101-SALESREFRIGERATIONENDCAP2 THERMAL ZONE,hourly; !- [J]
Output:Meter,Cooling:EnergyTransfer:Zone:L1-101-SALESREFRIGERATIONENDCAP3 THERMAL ZONE,hourly; !- [J]
Output:Meter:Cumulative,Cooling:EnergyTransfer:Zone:L1-101-SALESREFRIGERATIONENDCAP3 THERMAL ZONE,hourly; !- [J]
Output:Meter,Cooling:EnergyTransfer:Zone:L1-101-SALESREFRIGERATIONREACHINBEER THERMAL ZONE,hourly; !- [J]
Output:Meter:Cumulative,Cooling:EnergyTransfer:Zone:L1-101-SALESREFRIGERATIONREACHINBEER THERMAL ZONE,hourly; !- [J]
Output:Meter,Cooling:EnergyTransfer:Zone:L1-101-SALESREFRIGERATIONREACHINBEVERAGES THERMAL ZONE,hourly; !- [J]
Output:Meter:Cumulative,Cooling:EnergyTransfer:Zone:L1-101-SALESREFRIGERATIONREACHINBEVERAGES THERMAL ZONE,hourly; !- [J]
Output:Meter,Cooling:EnergyTransfer:Zone:L1-101-SALESREFRIGERATIONREACHINCHEES THERMAL ZONE,hourly; !- [J]
Output:Meter:Cumulative,Cooling:EnergyTransfer:Zone:L1-101-SALESREFRIGERATIONREACHINCHEES THERMAL ZONE,hourly; !- [J]
Output:Meter,Cooling:EnergyTransfer:Zone:L1-101-SALESREFRIGERATIONREACHINDAIRY1 THERMAL ZONE,hourly; !- [J]
Output:Meter:Cumulative,Cooling:EnergyTransfer:Zone:L1-101-SALESREFRIGERATIONREACHINDAIRY1 THERMAL ZONE,hourly; !- [J]
Output:Meter,Cooling:EnergyTransfer:Zone:L1-101-SALESREFRIGERATIONREACHINDAIRY2 THERMAL ZONE,hourly; !- [J]
Output:Meter:Cumulative,Cooling:EnergyTransfer:Zone:L1-101-SALESREFRIGERATIONREACHINDAIRY2 THERMAL ZONE,hourly; !- [J]
Output:Meter,Cooling:EnergyTransfer:Zone:L1-101-SALESREFRIGERATIONREACHINDAIRY3 THERMAL ZONE,hourly; !- [J]
Output:Meter:Cumulative,Cooling:EnergyTransfer:Zone:L1-101-SALESREFRIGERATIONREACHINDAIRY3 THERMAL ZONE,hourly; !- [J]
Output:Meter,Cooling:EnergyTransfer:Zone:L1-101-SALESREFRIGERATIONREACHINMEATSUBSTITUTES THERMAL ZONE,hourly; !- [J]
Output:Meter:Cumulative,Cooling:EnergyTransfer:Zone:L1-101-SALESREFRIGERATIONREACHINMEATSUBSTITUTES THERMAL ZONE,hourly; !- [J]
Output:Meter,Cooling:EnergyTransfer:Zone:L1-101-SALESREFRIGERATIONREACHINPREPARED THERMAL ZONE,hourly; !- [J]
Output:Meter:Cumulative,Cooling:EnergyTransfer:Zone:L1-101-SALESREFRIGERATIONREACHINPREPARED THERMAL ZONE,hourly; !- [J]
Output:Meter,Cooling:EnergyTransfer:Zone:L1-101-SALESWINE THERMAL ZONE,hourly; !- [J]
Output:Meter:Cumulative,Cooling:EnergyTransfer:Zone:L1-101-SALESWINE THERMAL ZONE,hourly; !- [J]
Output:Meter,Cooling:EnergyTransfer:Zone:L1-102-CHECKOUT1 THERMAL ZONE,hourly; !- [J]
Output:Meter:Cumulative,Cooling:EnergyTransfer:Zone:L1-102-CHECKOUT1 THERMAL ZONE,hourly; !- [J]
Output:Meter,Cooling:EnergyTransfer:Zone:L1-102-CHECKOUT2 THERMAL ZONE,hourly; !- [J]
Output:Meter:Cumulative,Cooling:EnergyTransfer:Zone:L1-102-CHECKOUT2 THERMAL ZONE,hourly; !- [J]
Output:Meter,Cooling:EnergyTransfer:Zone:L1-102-CHECKOUT3 THERMAL ZONE,hourly; !- [J]
Output:Meter:Cumulative,Cooling:EnergyTransfer:Zone:L1-102-CHECKOUT3 THERMAL ZONE,hourly; !- [J]
Output:Meter,Cooling:EnergyTransfer:Zone:L1-102-CHECKOUT4 THERMAL ZONE,hourly; !- [J]
Output:Meter:Cumulative,Cooling:EnergyTransfer:Zone:L1-102-CHECKOUT4 THERMAL ZONE,hourly; !- [J]
Output:Meter,Cooling:EnergyTransfer:Zone:L1-102-CHECKOUTBAGGING THERMAL ZONE,hourly; !- [J]
Output:Meter:Cumulative,Cooling:EnergyTransfer:Zone:L1-102-CHECKOUTBAGGING THERMAL ZONE,hourly; !- [J]
Output:Meter,Cooling:EnergyTransfer:Zone:L1-102-EXIT THERMAL ZONE,hourly; !- [J]
Output:Meter:Cumulative,Cooling:EnergyTransfer:Zone:L1-102-EXIT THERMAL ZONE,hourly; !- [J]
Output:Meter,Cooling:EnergyTransfer:Zone:L1-102-RECEIVINGOFFICE THERMAL ZONE,hourly; !- [J]
Output:Meter:Cumulative,Cooling:EnergyTransfer:Zone:L1-102-RECEIVINGOFFICE THERMAL ZONE,hourly; !- [J]
Output:Meter,Cooling:EnergyTransfer:Zone:L1-102-SELFCHECKOUT THERMAL ZONE,hourly; !- [J]
Output:Meter:Cumulative,Cooling:EnergyTransfer:Zone:L1-102-SELFCHECKOUT THERMAL ZONE,hourly; !- [J]
Output:Meter,Cooling:EnergyTransfer:Zone:L1-103-FLORAL THERMAL ZONE,hourly; !- [J]
Output:Meter:Cumulative,Cooling:EnergyTransfer:Zone:L1-103-FLORAL THERMAL ZONE,hourly; !- [J]
Output:Meter,Cooling:EnergyTransfer:Zone:L1-104-PRODUCE THERMAL ZONE,hourly; !- [J]
Output:Meter:Cumulative,Cooling:EnergyTransfer:Zone:L1-104-PRODUCE THERMAL ZONE,hourly; !- [J]
Output:Meter,Cooling:EnergyTransfer:Zone:L1-104-PRODUCECIRCULATION THERMAL ZONE,hourly; !- [J]
Output:Meter:Cumulative,Cooling:EnergyTransfer:Zone:L1-104-PRODUCECIRCULATION THERMAL ZONE,hourly; !- [J]
Output:Meter,Cooling:EnergyTransfer:Zone:L1-104-PRODUCECOOLERS1 THERMAL ZONE,hourly; !- [J]
Output:Meter:Cumulative,Cooling:EnergyTransfer:Zone:L1-104-PRODUCECOOLERS1 THERMAL ZONE,hourly; !- [J]
Output:Meter,Cooling:EnergyTransfer:Zone:L1-104-PRODUCECOOLERS2 THERMAL ZONE,hourly; !- [J]
Output:Meter:Cumulative,Cooling:EnergyTransfer:Zone:L1-104-PRODUCECOOLERS2 THERMAL ZONE,hourly; !- [J]
Output:Meter,Cooling:EnergyTransfer:Zone:L1-104-PRODUCECOOLERS3 THERMAL ZONE,hourly; !- [J]
Output:Meter:Cumulative,Cooling:EnergyTransfer:Zone:L1-104-PRODUCECOOLERS3 THERMAL ZONE,hourly; !- [J]
Output:Meter,Cooling:EnergyTransfer:Zone:L1-106-RECEIVING THERMAL ZONE,hourly; !- [J]
Output:Meter:Cumulative,Cooling:EnergyTransfer:Zone:L1-106-RECEIVING THERMAL ZONE,hourly; !- [J]
Output:Meter,Cooling:EnergyTransfer:Zone:L1-106-RECEIVINGTRANSFORMERS2 THERMAL ZONE,hourly; !- [J]
Output:Meter:Cumulative,Cooling:EnergyTransfer:Zone:L1-106-RECEIVINGTRANSFORMERS2 THERMAL ZONE,hourly; !- [J]
Output:Meter,Cooling:EnergyTransfer:Zone:L1-108-PRODUCECOOLER THERMAL ZONE,hourly; !- [J]
Output:Meter:Cumulative,Cooling:EnergyTransfer:Zone:L1-108-PRODUCECOOLER THERMAL ZONE,hourly; !- [J]
Output:Meter,Cooling:EnergyTransfer:Zone:L1-109-CORRIDOR THERMAL ZONE,hourly; !- [J]
Output:Meter:Cumulative,Cooling:EnergyTransfer:Zone:L1-109-CORRIDOR THERMAL ZONE,hourly; !- [J]
Output:Meter,Cooling:EnergyTransfer:Zone:L1-110-PRODUCEPREP THERMAL ZONE,hourly; !- [J]
Output:Meter:Cumulative,Cooling:EnergyTransfer:Zone:L1-110-PRODUCEPREP THERMAL ZONE,hourly; !- [J]
Output:Meter,Cooling:EnergyTransfer:Zone:L1-111-GROCERYFREEZER THERMAL ZONE,hourly; !- [J]
Output:Meter:Cumulative,Cooling:EnergyTransfer:Zone:L1-111-GROCERYFREEZER THERMAL ZONE,hourly; !- [J]
Output:Meter,Cooling:EnergyTransfer:Zone:L1-112-DAIRYCOOLER THERMAL ZONE,hourly; !- [J]
Output:Meter:Cumulative,Cooling:EnergyTransfer:Zone:L1-112-DAIRYCOOLER THERMAL ZONE,hourly; !- [J]
Output:Meter,Cooling:EnergyTransfer:Zone:L1-113-BEERCAGE THERMAL ZONE,hourly; !- [J]
Output:Meter:Cumulative,Cooling:EnergyTransfer:Zone:L1-113-BEERCAGE THERMAL ZONE,hourly; !- [J]
Output:Meter,Cooling:EnergyTransfer:Zone:L1-114-BACKSTOCK THERMAL ZONE,hourly; !- [J]
Output:Meter:Cumulative,Cooling:EnergyTransfer:Zone:L1-114-BACKSTOCK THERMAL ZONE,hourly; !- [J]
Output:Meter,Cooling:EnergyTransfer:Zone:L1-115-MEATSEAFOODCOOLER THERMAL ZONE,hourly; !- [J]
Output:Meter:Cumulative,Cooling:EnergyTransfer:Zone:L1-115-MEATSEAFOODCOOLER THERMAL ZONE,hourly; !- [J]
Output:Meter,Cooling:EnergyTransfer:Zone:L1-116-MEATSERVICE THERMAL ZONE,hourly; !- [J]
Output:Meter:Cumulative,Cooling:EnergyTransfer:Zone:L1-116-MEATSERVICE THERMAL ZONE,hourly; !- [J]
Output:Meter,Cooling:EnergyTransfer:Zone:L1-117-SEAFOODSURFACE THERMAL ZONE,hourly; !- [J]
Output:Meter:Cumulative,Cooling:EnergyTransfer:Zone:L1-117-SEAFOODSURFACE THERMAL ZONE,hourly; !- [J]
Output:Meter,Cooling:EnergyTransfer:Zone:L1-118-PREPAREDFOODSPREP THERMAL ZONE,hourly; !- [J]
Output:Meter:Cumulative,Cooling:EnergyTransfer:Zone:L1-118-PREPAREDFOODSPREP THERMAL ZONE,hourly; !- [J]
Output:Meter,Cooling:EnergyTransfer:Zone:L1-119-DELICOOLER THERMAL ZONE,hourly; !- [J]
Output:Meter:Cumulative,Cooling:EnergyTransfer:Zone:L1-119-DELICOOLER THERMAL ZONE,hourly; !- [J]
Output:Meter,Cooling:EnergyTransfer:Zone:L1-120-WOMEN THERMAL ZONE,hourly; !- [J]
Output:Meter:Cumulative,Cooling:EnergyTransfer:Zone:L1-120-WOMEN THERMAL ZONE,hourly; !- [J]
Output:Meter,Cooling:EnergyTransfer:Zone:L1-121-MEN THERMAL ZONE,hourly; !- [J]
Output:Meter:Cumulative,Cooling:EnergyTransfer:Zone:L1-121-MEN THERMAL ZONE,hourly; !- [J]
Output:Meter,Cooling:EnergyTransfer:Zone:L1-122-CORRIDOR THERMAL ZONE,hourly; !- [J]
Output:Meter:Cumulative,Cooling:EnergyTransfer:Zone:L1-122-CORRIDOR THERMAL ZONE,hourly; !- [J]
Output:Meter,Cooling:EnergyTransfer:Zone:L1-123-STAIRS THERMAL ZONE,hourly; !- [J]
Output:Meter:Cumulative,Cooling:EnergyTransfer:Zone:L1-123-STAIRS THERMAL ZONE,hourly; !- [J]
Output:Meter,Cooling:EnergyTransfer:Zone:L1-124-SPECIALTYSERVICE THERMAL ZONE,hourly; !- [J]
Output:Meter:Cumulative,Cooling:EnergyTransfer:Zone:L1-124-SPECIALTYSERVICE THERMAL ZONE,hourly; !- [J]
Output:Meter,Cooling:EnergyTransfer:Zone:L1-125-PREPAREDFOODS1 THERMAL ZONE,hourly; !- [J]
Output:Meter:Cumulative,Cooling:EnergyTransfer:Zone:L1-125-PREPAREDFOODS1 THERMAL ZONE,hourly; !- [J]
Output:Meter,Cooling:EnergyTransfer:Zone:L1-125-PREPAREDFOODS2 THERMAL ZONE,hourly; !- [J]
Output:Meter:Cumulative,Cooling:EnergyTransfer:Zone:L1-125-PREPAREDFOODS2 THERMAL ZONE,hourly; !- [J]
Output:Meter,Cooling:EnergyTransfer:Zone:L1-126-BAKERYSERVICE THERMAL ZONE,hourly; !- [J]
Output:Meter:Cumulative,Cooling:EnergyTransfer:Zone:L1-126-BAKERYSERVICE THERMAL ZONE,hourly; !- [J]
Output:Meter,Cooling:EnergyTransfer:Zone:L1-127-COFFEE THERMAL ZONE,hourly; !- [J]
Output:Meter:Cumulative,Cooling:EnergyTransfer:Zone:L1-127-COFFEE THERMAL ZONE,hourly; !- [J]
Output:Meter,Cooling:EnergyTransfer:Zone:L1-SHAFT THERMAL ZONE,hourly; !- [J]
Output:Meter:Cumulative,Cooling:EnergyTransfer:Zone:L1-SHAFT THERMAL ZONE,hourly; !- [J]
Output:Meter,Cooling:EnergyTransfer:Zone:L1-STAIRS THERMAL ZONE,hourly; !- [J]
Output:Meter:Cumulative,Cooling:EnergyTransfer:Zone:L1-STAIRS THERMAL ZONE,hourly; !- [J]
Output:Meter,Cooling:EnergyTransfer:Zone:L1S1-BACKSTOCK THERMAL ZONE,hourly; !- [J]
Output:Meter:Cumulative,Cooling:EnergyTransfer:Zone:L1S1-BACKSTOCK THERMAL ZONE,hourly; !- [J]
Output:Meter,Cooling:EnergyTransfer:Zone:L1S1-BEERCAGE THERMAL ZONE,hourly; !- [J]
Output:Meter:Cumulative,Cooling:EnergyTransfer:Zone:L1S1-BEERCAGE THERMAL ZONE,hourly; !- [J]
Output:Meter,Cooling:EnergyTransfer:Zone:L1S1-CHECKOUT THERMAL ZONE,hourly; !- [J]
Output:Meter:Cumulative,Cooling:EnergyTransfer:Zone:L1S1-CHECKOUT THERMAL ZONE,hourly; !- [J]
Output:Meter,Cooling:EnergyTransfer:Zone:L1S1-COFFEE THERMAL ZONE,hourly; !- [J]
Output:Meter:Cumulative,Cooling:EnergyTransfer:Zone:L1S1-COFFEE THERMAL ZONE,hourly; !- [J]
Output:Meter,Cooling:EnergyTransfer:Zone:L1S1-CORRIDOR THERMAL ZONE,hourly; !- [J]
Output:Meter:Cumulative,Cooling:EnergyTransfer:Zone:L1S1-CORRIDOR THERMAL ZONE,hourly; !- [J]
Output:Meter,Cooling:EnergyTransfer:Zone:L1S1-DAIRYCOOLER THERMAL ZONE,hourly; !- [J]
Output:Meter:Cumulative,Cooling:EnergyTransfer:Zone:L1S1-DAIRYCOOLER THERMAL ZONE,hourly; !- [J]
Output:Meter,Cooling:EnergyTransfer:Zone:L1S1-DELICOOLER THERMAL ZONE,hourly; !- [J]
Output:Meter:Cumulative,Cooling:EnergyTransfer:Zone:L1S1-DELICOOLER THERMAL ZONE,hourly; !- [J]
Output:Meter,Cooling:EnergyTransfer:Zone:L1S1-LOADING THERMAL ZONE,hourly; !- [J]
Output:Meter:Cumulative,Cooling:EnergyTransfer:Zone:L1S1-LOADING THERMAL ZONE,hourly; !- [J]
Output:Meter,Cooling:EnergyTransfer:Zone:L1S1-MEATSEAFOODCOOLER THERMAL ZONE,hourly; !- [J]
Output:Meter:Cumulative,Cooling:EnergyTransfer:Zone:L1S1-MEATSEAFOODCOOLER THERMAL ZONE,hourly; !- [J]
Output:Meter,Cooling:EnergyTransfer:Zone:L1S1-MEN THERMAL ZONE,hourly; !- [J]
Output:Meter:Cumulative,Cooling:EnergyTransfer:Zone:L1S1-MEN THERMAL ZONE,hourly; !- [J]
Output:Meter,Cooling:EnergyTransfer:Zone:L1S1-PREPAREDFOODS THERMAL ZONE,hourly; !- [J]
Output:Meter:Cumulative,Cooling:EnergyTransfer:Zone:L1S1-PREPAREDFOODS THERMAL ZONE,hourly; !- [J]
Output:Meter,Cooling:EnergyTransfer:Zone:L1S1-PREPAREDFOODSPREP THERMAL ZONE,hourly; !- [J]
Output:Meter:Cumulative,Cooling:EnergyTransfer:Zone:L1S1-PREPAREDFOODSPREP THERMAL ZONE,hourly; !- [J]
Output:Meter,Cooling:EnergyTransfer:Zone:L1S1-PRODUCE THERMAL ZONE,hourly; !- [J]
Output:Meter:Cumulative,Cooling:EnergyTransfer:Zone:L1S1-PRODUCE THERMAL ZONE,hourly; !- [J]
Output:Meter,Cooling:EnergyTransfer:Zone:L1S1-SALESAISLE1 THERMAL ZONE,hourly; !- [J]
Output:Meter:Cumulative,Cooling:EnergyTransfer:Zone:L1S1-SALESAISLE1 THERMAL ZONE,hourly; !- [J]
Output:Meter,Cooling:EnergyTransfer:Zone:L1S1-SALESAISLE4 THERMAL ZONE,hourly; !- [J]
Output:Meter:Cumulative,Cooling:EnergyTransfer:Zone:L1S1-SALESAISLE4 THERMAL ZONE,hourly; !- [J]
Output:Meter,Cooling:EnergyTransfer:Zone:L1S1-SALESNORTH THERMAL ZONE,hourly; !- [J]
Output:Meter:Cumulative,Cooling:EnergyTransfer:Zone:L1S1-SALESNORTH THERMAL ZONE,hourly; !- [J]
Output:Meter,Cooling:EnergyTransfer:Zone:L1S1-SALESREFRIGERATIONAISLE6 THERMAL ZONE,hourly; !- [J]
Output:Meter:Cumulative,Cooling:EnergyTransfer:Zone:L1S1-SALESREFRIGERATIONAISLE6 THERMAL ZONE,hourly; !- [J]
Output:Meter,Cooling:EnergyTransfer:Zone:L1S1-SALESREFRIGERATIONREACHINDAIRY2 THERMAL ZONE,hourly; !- [J]
Output:Meter:Cumulative,Cooling:EnergyTransfer:Zone:L1S1-SALESREFRIGERATIONREACHINDAIRY2 THERMAL ZONE,hourly; !- [J]
Output:Meter,Cooling:EnergyTransfer:Zone:L1S1-SALESREFRIGERATIONREACHPREPARED THERMAL ZONE,hourly; !- [J]
Output:Meter:Cumulative,Cooling:EnergyTransfer:Zone:L1S1-SALESREFRIGERATIONREACHPREPARED THERMAL ZONE,hourly; !- [J]
Output:Meter,Cooling:EnergyTransfer:Zone:L1S1-SALESSOUTH THERMAL ZONE,hourly; !- [J]
Output:Meter:Cumulative,Cooling:EnergyTransfer:Zone:L1S1-SALESSOUTH THERMAL ZONE,hourly; !- [J]
Output:Meter,Cooling:EnergyTransfer:Zone:L1S1-SEAFOODSURFACE THERMAL ZONE,hourly; !- [J]
Output:Meter:Cumulative,Cooling:EnergyTransfer:Zone:L1S1-SEAFOODSURFACE THERMAL ZONE,hourly; !- [J]
Output:Meter,Cooling:EnergyTransfer:Zone:L1S1-SHAFT THERMAL ZONE,hourly; !- [J]
Output:Meter:Cumulative,Cooling:EnergyTransfer:Zone:L1S1-SHAFT THERMAL ZONE,hourly; !- [J]
Output:Meter,Cooling:EnergyTransfer:Zone:L1S1-SPECIALTYSERVICE THERMAL ZONE,hourly; !- [J]
Output:Meter:Cumulative,Cooling:EnergyTransfer:Zone:L1S1-SPECIALTYSERVICE THERMAL ZONE,hourly; !- [J]
Output:Meter,Cooling:EnergyTransfer:Zone:L1S1-STAIRS THERMAL ZONE,hourly; !- [J]
Output:Meter:Cumulative,Cooling:EnergyTransfer:Zone:L1S1-STAIRS THERMAL ZONE,hourly; !- [J]
Output:Meter,Cooling:EnergyTransfer:Zone:L1S1-WOMEN THERMAL ZONE,hourly; !- [J]
Output:Meter:Cumulative,Cooling:EnergyTransfer:Zone:L1S1-WOMEN THERMAL ZONE,hourly; !- [J]
Output:Meter,Cooling:EnergyTransfer:Zone:L1S2-AISLESEAST THERMAL ZONE,hourly; !- [J]
Output:Meter:Cumulative,Cooling:EnergyTransfer:Zone:L1S2-AISLESEAST THERMAL ZONE,hourly; !- [J]
Output:Meter,Cooling:EnergyTransfer:Zone:L1S2-AISLESWEST THERMAL ZONE,hourly; !- [J]
Output:Meter:Cumulative,Cooling:EnergyTransfer:Zone:L1S2-AISLESWEST THERMAL ZONE,hourly; !- [J]
Output:Meter,Cooling:EnergyTransfer:Zone:L1S2-BAKERY THERMAL ZONE,hourly; !- [J]
Output:Meter:Cumulative,Cooling:EnergyTransfer:Zone:L1S2-BAKERY THERMAL ZONE,hourly; !- [J]
Output:Meter,Cooling:EnergyTransfer:Zone:L1S2-CHECKOUT THERMAL ZONE,hourly; !- [J]
Output:Meter:Cumulative,Cooling:EnergyTransfer:Zone:L1S2-CHECKOUT THERMAL ZONE,hourly; !- [J]
Output:Meter,Cooling:EnergyTransfer:Zone:L1S2-LOADINGBOH THERMAL ZONE,hourly; !- [J]
Output:Meter:Cumulative,Cooling:EnergyTransfer:Zone:L1S2-LOADINGBOH THERMAL ZONE,hourly; !- [J]
Output:Meter,Cooling:EnergyTransfer:Zone:L1S2-REACHINPREPARED THERMAL ZONE,hourly; !- [J]
Output:Meter:Cumulative,Cooling:EnergyTransfer:Zone:L1S2-REACHINPREPARED THERMAL ZONE,hourly; !- [J]
Output:Meter,Cooling:EnergyTransfer:Zone:L1S2-SHAFT THERMAL ZONE,hourly; !- [J]
Output:Meter:Cumulative,Cooling:EnergyTransfer:Zone:L1S2-SHAFT THERMAL ZONE,hourly; !- [J]
Output:Meter,Cooling:EnergyTransfer:Zone:L1S2-SHAFT2 THERMAL ZONE,hourly; !- [J]
Output:Meter:Cumulative,Cooling:EnergyTransfer:Zone:L1S2-SHAFT2 THERMAL ZONE,hourly; !- [J]
Output:Meter,Cooling:EnergyTransfer:Zone:L2-201-CORRIDOR THERMAL ZONE,hourly; !- [J]
Output:Meter:Cumulative,Cooling:EnergyTransfer:Zone:L2-201-CORRIDOR THERMAL ZONE,hourly; !- [J]
Output:Meter,Cooling:EnergyTransfer:Zone:L2-201-EXGSTORAGE THERMAL ZONE,hourly; !- [J]
Output:Meter:Cumulative,Cooling:EnergyTransfer:Zone:L2-201-EXGSTORAGE THERMAL ZONE,hourly; !- [J]
Output:Meter,Cooling:EnergyTransfer:Zone:L2-201-STAIRS1 THERMAL ZONE,hourly; !- [J]
Output:Meter:Cumulative,Cooling:EnergyTransfer:Zone:L2-201-STAIRS1 THERMAL ZONE,hourly; !- [J]
Output:Meter,Cooling:EnergyTransfer:Zone:L2-201-STORAGE THERMAL ZONE,hourly; !- [J]
Output:Meter:Cumulative,Cooling:EnergyTransfer:Zone:L2-201-STORAGE THERMAL ZONE,hourly; !- [J]
Output:Meter,Cooling:EnergyTransfer:Zone:L2-201-WALKINS THERMAL ZONE,hourly; !- [J]
Output:Meter:Cumulative,Cooling:EnergyTransfer:Zone:L2-201-WALKINS THERMAL ZONE,hourly; !- [J]
Output:Meter,Cooling:EnergyTransfer:Zone:L2-205-REFRIGERATIONEQUIPMENTROOMLOWER THERMAL ZONE,hourly; !- [J]
Output:Meter:Cumulative,Cooling:EnergyTransfer:Zone:L2-205-REFRIGERATIONEQUIPMENTROOMLOWER THERMAL ZONE,hourly; !- [J]
Output:Meter,Cooling:EnergyTransfer:Zone:L2-205-REFRIGERATIONEQUIPMENTROOMUPPER THERMAL ZONE,hourly; !- [J]
Output:Meter:Cumulative,Cooling:EnergyTransfer:Zone:L2-205-REFRIGERATIONEQUIPMENTROOMUPPER THERMAL ZONE,hourly; !- [J]
Output:Meter,Cooling:EnergyTransfer:Zone:M-123-STAIRS THERMAL ZONE,hourly; !- [J]
Output:Meter:Cumulative,Cooling:EnergyTransfer:Zone:M-123-STAIRS THERMAL ZONE,hourly; !- [J]
Output:Meter,Cooling:EnergyTransfer:Zone:M-151-STAIRS1 THERMAL ZONE,hourly; !- [J]
Output:Meter:Cumulative,Cooling:EnergyTransfer:Zone:M-151-STAIRS1 THERMAL ZONE,hourly; !- [J]
Output:Meter,Cooling:EnergyTransfer:Zone:M-152-MDF THERMAL ZONE,hourly; !- [J]
Output:Meter:Cumulative,Cooling:EnergyTransfer:Zone:M-152-MDF THERMAL ZONE,hourly; !- [J]
Output:Meter,Cooling:EnergyTransfer:Zone:M-153-CASHROOM THERMAL ZONE,hourly; !- [J]
Output:Meter:Cumulative,Cooling:EnergyTransfer:Zone:M-153-CASHROOM THERMAL ZONE,hourly; !- [J]
Output:Meter,Cooling:EnergyTransfer:Zone:M-154-EXGOFFICE THERMAL ZONE,hourly; !- [J]
Output:Meter:Cumulative,Cooling:EnergyTransfer:Zone:M-154-EXGOFFICE THERMAL ZONE,hourly; !- [J]
Output:Meter,Cooling:EnergyTransfer:Zone:M-155-EXGOFFICE THERMAL ZONE,hourly; !- [J]
Output:Meter:Cumulative,Cooling:EnergyTransfer:Zone:M-155-EXGOFFICE THERMAL ZONE,hourly; !- [J]
Output:Meter,Cooling:EnergyTransfer:Zone:M-156-STLOFFICE THERMAL ZONE,hourly; !- [J]
Output:Meter:Cumulative,Cooling:EnergyTransfer:Zone:M-156-STLOFFICE THERMAL ZONE,hourly; !- [J]
Output:Meter,Cooling:EnergyTransfer:Zone:M-157-EXGOFFICE THERMAL ZONE,hourly; !- [J]
Output:Meter:Cumulative,Cooling:EnergyTransfer:Zone:M-157-EXGOFFICE THERMAL ZONE,hourly; !- [J]
Output:Meter,Cooling:EnergyTransfer:Zone:M-158-BREAKROOM THERMAL ZONE,hourly; !- [J]
Output:Meter:Cumulative,Cooling:EnergyTransfer:Zone:M-158-BREAKROOM THERMAL ZONE,hourly; !- [J]
Output:Meter,Cooling:EnergyTransfer:Zone:M-159-EXGVEST THERMAL ZONE,hourly; !- [J]
Output:Meter:Cumulative,Cooling:EnergyTransfer:Zone:M-159-EXGVEST THERMAL ZONE,hourly; !- [J]
Output:Meter,Cooling:EnergyTransfer:Zone:M-161-MEN THERMAL ZONE,hourly; !- [J]
Output:Meter:Cumulative,Cooling:EnergyTransfer:Zone:M-161-MEN THERMAL ZONE,hourly; !- [J]
Output:Meter,Cooling:EnergyTransfer:Zone:M-162-PREPROOM THERMAL ZONE,hourly; !- [J]
Output:Meter:Cumulative,Cooling:EnergyTransfer:Zone:M-162-PREPROOM THERMAL ZONE,hourly; !- [J]
Output:Meter,Cooling:EnergyTransfer:Zone:M-163-MEATPREP THERMAL ZONE,hourly; !- [J]
Output:Meter:Cumulative,Cooling:EnergyTransfer:Zone:M-163-MEATPREP THERMAL ZONE,hourly; !- [J]
Output:Meter,Cooling:EnergyTransfer:Zone:M-164-MEATCOOLER THERMAL ZONE,hourly; !- [J]
Output:Meter:Cumulative,Cooling:EnergyTransfer:Zone:M-164-MEATCOOLER THERMAL ZONE,hourly; !- [J]
Output:Meter,Cooling:EnergyTransfer:Zone:M-201-EXGSTORAGE THERMAL ZONE,hourly; !- [J]
Output:Meter:Cumulative,Cooling:EnergyTransfer:Zone:M-201-EXGSTORAGE THERMAL ZONE,hourly; !- [J]
Output:Meter,Cooling:EnergyTransfer:Zone:M-BAKERYFREEZER THERMAL ZONE,hourly; !- [J]
Output:Meter:Cumulative,Cooling:EnergyTransfer:Zone:M-BAKERYFREEZER THERMAL ZONE,hourly; !- [J]
Output:Meter,Cooling:EnergyTransfer:Zone:M-EXGWOMEN THERMAL ZONE,hourly; !- [J]
Output:Meter:Cumulative,Cooling:EnergyTransfer:Zone:M-EXGWOMEN THERMAL ZONE,hourly; !- [J]
Output:Meter,CoolingCoils:EnergyTransfer,hourly; !- [J]
Output:Meter:Cumulative,CoolingCoils:EnergyTransfer,hourly; !- [J]
Output:Meter,Dairy Cooler:InteriorLights:Electricity,hourly; !- [J]
Output:Meter:Cumulative,Dairy Cooler:InteriorLights:Electricity,hourly; !- [J]
Output:Meter,Dairy:InteriorLights:Electricity,hourly; !- [J]
Output:Meter:Cumulative,Dairy:InteriorLights:Electricity,hourly; !- [J]
Output:Meter,Electricity:Building,hourly; !- [J]
Output:Meter:Cumulative,Electricity:Building,hourly; !- [J]
Output:Meter,Electricity:Facility,hourly; !- [J]
Output:Meter:Cumulative,Electricity:Facility,hourly; !- [J]
Output:Meter,Electricity:HVAC,hourly; !- [J]
Output:Meter:Cumulative,Electricity:HVAC,hourly; !- [J]
Output:Meter,Electricity:Plant,hourly; !- [J]
Output:Meter:Cumulative,Electricity:Plant,hourly; !- [J]
Output:Meter,Electricity:Zone:L1-101-SALESAISLE1 THERMAL ZONE,hourly; !- [J]
Output:Meter:Cumulative,Electricity:Zone:L1-101-SALESAISLE1 THERMAL ZONE,hourly; !- [J]
Output:Meter,Electricity:Zone:L1-101-SALESAISLE4 THERMAL ZONE,hourly; !- [J]
Output:Meter:Cumulative,Electricity:Zone:L1-101-SALESAISLE4 THERMAL ZONE,hourly; !- [J]
Output:Meter,Electricity:Zone:L1-101-SALESAISLEBULK THERMAL ZONE,hourly; !- [J]
Output:Meter:Cumulative,Electricity:Zone:L1-101-SALESAISLEBULK THERMAL ZONE,hourly; !- [J]
Output:Meter,Electricity:Zone:L1-101-SALESCIRCULATION10 THERMAL ZONE,hourly; !- [J]
Output:Meter:Cumulative,Electricity:Zone:L1-101-SALESCIRCULATION10 THERMAL ZONE,hourly; !- [J]
Output:Meter,Electricity:Zone:L1-101-SALESCIRCULATIONMEATSEAFOOD THERMAL ZONE,hourly; !- [J]
Output:Meter:Cumulative,Electricity:Zone:L1-101-SALESCIRCULATIONMEATSEAFOOD THERMAL ZONE,hourly; !- [J]
Output:Meter,Electricity:Zone:L1-101-SALESREFRIGERATIONAISLE1 THERMAL ZONE,hourly; !- [J]
Output:Meter:Cumulative,Electricity:Zone:L1-101-SALESREFRIGERATIONAISLE1 THERMAL ZONE,hourly; !- [J]
Output:Meter,Electricity:Zone:L1-101-SALESREFRIGERATIONAISLE2 THERMAL ZONE,hourly; !- [J]
Output:Meter:Cumulative,Electricity:Zone:L1-101-SALESREFRIGERATIONAISLE2 THERMAL ZONE,hourly; !- [J]
Output:Meter,Electricity:Zone:L1-101-SALESREFRIGERATIONAISLE3 THERMAL ZONE,hourly; !- [J]
Output:Meter:Cumulative,Electricity:Zone:L1-101-SALESREFRIGERATIONAISLE3 THERMAL ZONE,hourly; !- [J]
Output:Meter,Electricity:Zone:L1-101-SALESREFRIGERATIONAISLE4 THERMAL ZONE,hourly; !- [J]
Output:Meter:Cumulative,Electricity:Zone:L1-101-SALESREFRIGERATIONAISLE4 THERMAL ZONE,hourly; !- [J]
Output:Meter,Electricity:Zone:L1-101-SALESREFRIGERATIONAISLE5 THERMAL ZONE,hourly; !- [J]
Output:Meter:Cumulative,Electricity:Zone:L1-101-SALESREFRIGERATIONAISLE5 THERMAL ZONE,hourly; !- [J]
Output:Meter,Electricity:Zone:L1-101-SALESREFRIGERATIONAISLE6 THERMAL ZONE,hourly; !- [J]
Output:Meter:Cumulative,Electricity:Zone:L1-101-SALESREFRIGERATIONAISLE6 THERMAL ZONE,hourly; !- [J]
Output:Meter,Electricity:Zone:L1-101-SALESREFRIGERATIONAISLE7 THERMAL ZONE,hourly; !- [J]
Output:Meter:Cumulative,Electricity:Zone:L1-101-SALESREFRIGERATIONAISLE7 THERMAL ZONE,hourly; !- [J]
Output:Meter,Electricity:Zone:L1-101-SALESREFRIGERATIONREACHINBEER THERMAL ZONE,hourly; !- [J]
Output:Meter:Cumulative,Electricity:Zone:L1-101-SALESREFRIGERATIONREACHINBEER THERMAL ZONE,hourly; !- [J]
Output:Meter,Electricity:Zone:L1-101-SALESREFRIGERATIONREACHINBEVERAGES THERMAL ZONE,hourly; !- [J]
Output:Meter:Cumulative,Electricity:Zone:L1-101-SALESREFRIGERATIONREACHINBEVERAGES THERMAL ZONE,hourly; !- [J]
Output:Meter,Electricity:Zone:L1-101-SALESREFRIGERATIONREACHINCHEES THERMAL ZONE,hourly; !- [J]
Output:Meter:Cumulative,Electricity:Zone:L1-101-SALESREFRIGERATIONREACHINCHEES THERMAL ZONE,hourly; !- [J]
Output:Meter,Electricity:Zone:L1-101-SALESREFRIGERATIONREACHINDAIRY1 THERMAL ZONE,hourly; !- [J]
Output:Meter:Cumulative,Electricity:Zone:L1-101-SALESREFRIGERATIONREACHINDAIRY1 THERMAL ZONE,hourly; !- [J]
Output:Meter,Electricity:Zone:L1-101-SALESREFRIGERATIONREACHINDAIRY2 THERMAL ZONE,hourly; !- [J]
Output:Meter:Cumulative,Electricity:Zone:L1-101-SALESREFRIGERATIONREACHINDAIRY2 THERMAL ZONE,hourly; !- [J]
Output:Meter,Electricity:Zone:L1-101-SALESREFRIGERATIONREACHINDAIRY3 THERMAL ZONE,hourly; !- [J]
Output:Meter:Cumulative,Electricity:Zone:L1-101-SALESREFRIGERATIONREACHINDAIRY3 THERMAL ZONE,hourly; !- [J]
Output:Meter,Electricity:Zone:L1-101-SALESREFRIGERATIONREACHINMEATSUBSTITUTES THERMAL ZONE,hourly; !- [J]
Output:Meter:Cumulative,Electricity:Zone:L1-101-SALESREFRIGERATIONREACHINMEATSUBSTITUTES THERMAL ZONE,hourly; !- [J]
Output:Meter,Electricity:Zone:L1-101-SALESREFRIGERATIONREACHINPREPARED THERMAL ZONE,hourly; !- [J]
Output:Meter:Cumulative,Electricity:Zone:L1-101-SALESREFRIGERATIONREACHINPREPARED THERMAL ZONE,hourly; !- [J]
Output:Meter,Electricity:Zone:L1-102-CHECKOUT1 THERMAL ZONE,hourly; !- [J]
Output:Meter:Cumulative,Electricity:Zone:L1-102-CHECKOUT1 THERMAL ZONE,hourly; !- [J]
Output:Meter,Electricity:Zone:L1-102-CHECKOUT2 THERMAL ZONE,hourly; !- [J]
Output:Meter:Cumulative,Electricity:Zone:L1-102-CHECKOUT2 THERMAL ZONE,hourly; !- [J]
Output:Meter,Electricity:Zone:L1-102-CHECKOUT3 THERMAL ZONE,hourly; !- [J]
Output:Meter:Cumulative,Electricity:Zone:L1-102-CHECKOUT3 THERMAL ZONE,hourly; !- [J]
Output:Meter,Electricity:Zone:L1-102-CHECKOUT4 THERMAL ZONE,hourly; !- [J]
Output:Meter:Cumulative,Electricity:Zone:L1-102-CHECKOUT4 THERMAL ZONE,hourly; !- [J]
Output:Meter,Electricity:Zone:L1-102-RECEIVINGOFFICE THERMAL ZONE,hourly; !- [J]
Output:Meter:Cumulative,Electricity:Zone:L1-102-RECEIVINGOFFICE THERMAL ZONE,hourly; !- [J]
Output:Meter,Electricity:Zone:L1-102-SELFCHECKOUT THERMAL ZONE,hourly; !- [J]
Output:Meter:Cumulative,Electricity:Zone:L1-102-SELFCHECKOUT THERMAL ZONE,hourly; !- [J]
Output:Meter,Electricity:Zone:L1-103-FLORAL THERMAL ZONE,hourly; !- [J]
Output:Meter:Cumulative,Electricity:Zone:L1-103-FLORAL THERMAL ZONE,hourly; !- [J]
Output:Meter,Electricity:Zone:L1-104-PRODUCECOOLERS1 THERMAL ZONE,hourly; !- [J]
Output:Meter:Cumulative,Electricity:Zone:L1-104-PRODUCECOOLERS1 THERMAL ZONE,hourly; !- [J]
Output:Meter,Electricity:Zone:L1-104-PRODUCECOOLERS2 THERMAL ZONE,hourly; !- [J]
Output:Meter:Cumulative,Electricity:Zone:L1-104-PRODUCECOOLERS2 THERMAL ZONE,hourly; !- [J]
Output:Meter,Electricity:Zone:L1-104-PRODUCECOOLERS3 THERMAL ZONE,hourly; !- [J]
Output:Meter:Cumulative,Electricity:Zone:L1-104-PRODUCECOOLERS3 THERMAL ZONE,hourly; !- [J]
Output:Meter,Electricity:Zone:L1-106-RECEIVINGTRANSFORMERS2 THERMAL ZONE,hourly; !- [J]
Output:Meter:Cumulative,Electricity:Zone:L1-106-RECEIVINGTRANSFORMERS2 THERMAL ZONE,hourly; !- [J]
Output:Meter,Electricity:Zone:L1-108-PRODUCECOOLER THERMAL ZONE,hourly; !- [J]
Output:Meter:Cumulative,Electricity:Zone:L1-108-PRODUCECOOLER THERMAL ZONE,hourly; !- [J]
Output:Meter,Electricity:Zone:L1-110-PRODUCEPREP THERMAL ZONE,hourly; !- [J]
Output:Meter:Cumulative,Electricity:Zone:L1-110-PRODUCEPREP THERMAL ZONE,hourly; !- [J]
Output:Meter,Electricity:Zone:L1-111-GROCERYFREEZER THERMAL ZONE,hourly; !- [J]
Output:Meter:Cumulative,Electricity:Zone:L1-111-GROCERYFREEZER THERMAL ZONE,hourly; !- [J]
Output:Meter,Electricity:Zone:L1-112-DAIRYCOOLER THERMAL ZONE,hourly; !- [J]
Output:Meter:Cumulative,Electricity:Zone:L1-112-DAIRYCOOLER THERMAL ZONE,hourly; !- [J]
Output:Meter,Electricity:Zone:L1-115-MEATSEAFOODCOOLER THERMAL ZONE,hourly; !- [J]
Output:Meter:Cumulative,Electricity:Zone:L1-115-MEATSEAFOODCOOLER THERMAL ZONE,hourly; !- [J]
Output:Meter,Electricity:Zone:L1-116-MEATSERVICE THERMAL ZONE,hourly; !- [J]
Output:Meter:Cumulative,Electricity:Zone:L1-116-MEATSERVICE THERMAL ZONE,hourly; !- [J]
Output:Meter,Electricity:Zone:L1-117-SEAFOODSURFACE THERMAL ZONE,hourly; !- [J]
Output:Meter:Cumulative,Electricity:Zone:L1-117-SEAFOODSURFACE THERMAL ZONE,hourly; !- [J]
Output:Meter,Electricity:Zone:L1-118-PREPAREDFOODSPREP THERMAL ZONE,hourly; !- [J]
Output:Meter:Cumulative,Electricity:Zone:L1-118-PREPAREDFOODSPREP THERMAL ZONE,hourly; !- [J]
Output:Meter,Electricity:Zone:L1-119-DELICOOLER THERMAL ZONE,hourly; !- [J]
Output:Meter:Cumulative,Electricity:Zone:L1-119-DELICOOLER THERMAL ZONE,hourly; !- [J]
Output:Meter,Electricity:Zone:L1-121-MEN THERMAL ZONE,hourly; !- [J]
Output:Meter:Cumulative,Electricity:Zone:L1-121-MEN THERMAL ZONE,hourly; !- [J]
Output:Meter,Electricity:Zone:L1-124-SPECIALTYSERVICE THERMAL ZONE,hourly; !- [J]
Output:Meter:Cumulative,Electricity:Zone:L1-124-SPECIALTYSERVICE THERMAL ZONE,hourly; !- [J]
Output:Meter,Electricity:Zone:L1-125-PREPAREDFOODS1 THERMAL ZONE,hourly; !- [J]
Output:Meter:Cumulative,Electricity:Zone:L1-125-PREPAREDFOODS1 THERMAL ZONE,hourly; !- [J]
Output:Meter,Electricity:Zone:L1-125-PREPAREDFOODS2 THERMAL ZONE,hourly; !- [J]
Output:Meter:Cumulative,Electricity:Zone:L1-125-PREPAREDFOODS2 THERMAL ZONE,hourly; !- [J]
Output:Meter,Electricity:Zone:L1-126-BAKERYSERVICE THERMAL ZONE,hourly; !- [J]
Output:Meter:Cumulative,Electricity:Zone:L1-126-BAKERYSERVICE THERMAL ZONE,hourly; !- [J]
Output:Meter,Electricity:Zone:L1-127-COFFEE THERMAL ZONE,hourly; !- [J]
Output:Meter:Cumulative,Electricity:Zone:L1-127-COFFEE THERMAL ZONE,hourly; !- [J]
Output:Meter,Electricity:Zone:L1S1-BACKSTOCK THERMAL ZONE,hourly; !- [J]
Output:Meter:Cumulative,Electricity:Zone:L1S1-BACKSTOCK THERMAL ZONE,hourly; !- [J]
Output:Meter,Electricity:Zone:L1S1-BEERCAGE THERMAL ZONE,hourly; !- [J]
Output:Meter:Cumulative,Electricity:Zone:L1S1-BEERCAGE THERMAL ZONE,hourly; !- [J]
Output:Meter,Electricity:Zone:L1S1-CHECKOUT THERMAL ZONE,hourly; !- [J]
Output:Meter:Cumulative,Electricity:Zone:L1S1-CHECKOUT THERMAL ZONE,hourly; !- [J]
Output:Meter,Electricity:Zone:L1S1-COFFEE THERMAL ZONE,hourly; !- [J]
Output:Meter:Cumulative,Electricity:Zone:L1S1-COFFEE THERMAL ZONE,hourly; !- [J]
Output:Meter,Electricity:Zone:L1S1-CORRIDOR THERMAL ZONE,hourly; !- [J]
Output:Meter:Cumulative,Electricity:Zone:L1S1-CORRIDOR THERMAL ZONE,hourly; !- [J]
Output:Meter,Electricity:Zone:L1S1-DAIRYCOOLER THERMAL ZONE,hourly; !- [J]
Output:Meter:Cumulative,Electricity:Zone:L1S1-DAIRYCOOLER THERMAL ZONE,hourly; !- [J]
Output:Meter,Electricity:Zone:L1S1-DELICOOLER THERMAL ZONE,hourly; !- [J]
Output:Meter:Cumulative,Electricity:Zone:L1S1-DELICOOLER THERMAL ZONE,hourly; !- [J]
Output:Meter,Electricity:Zone:L1S1-LOADING THERMAL ZONE,hourly; !- [J]
Output:Meter:Cumulative,Electricity:Zone:L1S1-LOADING THERMAL ZONE,hourly; !- [J]
Output:Meter,Electricity:Zone:L1S1-MEATSEAFOODCOOLER THERMAL ZONE,hourly; !- [J]
Output:Meter:Cumulative,Electricity:Zone:L1S1-MEATSEAFOODCOOLER THERMAL ZONE,hourly; !- [J]
Output:Meter,Electricity:Zone:L1S1-MEN THERMAL ZONE,hourly; !- [J]
Output:Meter:Cumulative,Electricity:Zone:L1S1-MEN THERMAL ZONE,hourly; !- [J]
Output:Meter,Electricity:Zone:L1S1-PREPAREDFOODSPREP THERMAL ZONE,hourly; !- [J]
Output:Meter:Cumulative,Electricity:Zone:L1S1-PREPAREDFOODSPREP THERMAL ZONE,hourly; !- [J]
Output:Meter,Electricity:Zone:L1S1-PRODUCE THERMAL ZONE,hourly; !- [J]
Output:Meter:Cumulative,Electricity:Zone:L1S1-PRODUCE THERMAL ZONE,hourly; !- [J]
Output:Meter,Electricity:Zone:L1S1-SALESAISLE1 THERMAL ZONE,hourly; !- [J]
Output:Meter:Cumulative,Electricity:Zone:L1S1-SALESAISLE1 THERMAL ZONE,hourly; !- [J]
Output:Meter,Electricity:Zone:L1S1-SALESAISLE4 THERMAL ZONE,hourly; !- [J]
Output:Meter:Cumulative,Electricity:Zone:L1S1-SALESAISLE4 THERMAL ZONE,hourly; !- [J]
Output:Meter,Electricity:Zone:L1S1-SALESNORTH THERMAL ZONE,hourly; !- [J]
Output:Meter:Cumulative,Electricity:Zone:L1S1-SALESNORTH THERMAL ZONE,hourly; !- [J]
Output:Meter,Electricity:Zone:L1S1-SALESREFRIGERATIONAISLE6 THERMAL ZONE,hourly; !- [J]
Output:Meter:Cumulative,Electricity:Zone:L1S1-SALESREFRIGERATIONAISLE6 THERMAL ZONE,hourly; !- [J]
Output:Meter,Electricity:Zone:L1S1-SALESREFRIGERATIONREACHINDAIRY2 THERMAL ZONE,hourly; !- [J]
Output:Meter:Cumulative,Electricity:Zone:L1S1-SALESREFRIGERATIONREACHINDAIRY2 THERMAL ZONE,hourly; !- [J]
Output:Meter,Electricity:Zone:L1S1-SALESREFRIGERATIONREACHPREPARED THERMAL ZONE,hourly; !- [J]
Output:Meter:Cumulative,Electricity:Zone:L1S1-SALESREFRIGERATIONREACHPREPARED THERMAL ZONE,hourly; !- [J]
Output:Meter,Electricity:Zone:L1S1-SEAFOODSURFACE THERMAL ZONE,hourly; !- [J]
Output:Meter:Cumulative,Electricity:Zone:L1S1-SEAFOODSURFACE THERMAL ZONE,hourly; !- [J]
Output:Meter,Electricity:Zone:L1S1-SPECIALTYSERVICE THERMAL ZONE,hourly; !- [J]
Output:Meter:Cumulative,Electricity:Zone:L1S1-SPECIALTYSERVICE THERMAL ZONE,hourly; !- [J]
Output:Meter,Electricity:Zone:L1S1-STAIRS THERMAL ZONE,hourly; !- [J]
Output:Meter:Cumulative,Electricity:Zone:L1S1-STAIRS THERMAL ZONE,hourly; !- [J]
Output:Meter,Electricity:Zone:L1S1-WOMEN THERMAL ZONE,hourly; !- [J]
Output:Meter:Cumulative,Electricity:Zone:L1S1-WOMEN THERMAL ZONE,hourly; !- [J]
Output:Meter,Electricity:Zone:L1S2-AISLESEAST THERMAL ZONE,hourly; !- [J]
Output:Meter:Cumulative,Electricity:Zone:L1S2-AISLESEAST THERMAL ZONE,hourly; !- [J]
Output:Meter,Electricity:Zone:L1S2-AISLESWEST THERMAL ZONE,hourly; !- [J]
Output:Meter:Cumulative,Electricity:Zone:L1S2-AISLESWEST THERMAL ZONE,hourly; !- [J]
Output:Meter,Electricity:Zone:L1S2-BAKERY THERMAL ZONE,hourly; !- [J]
Output:Meter:Cumulative,Electricity:Zone:L1S2-BAKERY THERMAL ZONE,hourly; !- [J]
Output:Meter,Electricity:Zone:L1S2-CHECKOUT THERMAL ZONE,hourly; !- [J]
Output:Meter:Cumulative,Electricity:Zone:L1S2-CHECKOUT THERMAL ZONE,hourly; !- [J]
Output:Meter,Electricity:Zone:L2-201-CORRIDOR THERMAL ZONE,hourly; !- [J]
Output:Meter:Cumulative,Electricity:Zone:L2-201-CORRIDOR THERMAL ZONE,hourly; !- [J]
Output:Meter,Electricity:Zone:L2-201-EXGSTORAGE THERMAL ZONE,hourly; !- [J]
Output:Meter:Cumulative,Electricity:Zone:L2-201-EXGSTORAGE THERMAL ZONE,hourly; !- [J]
Output:Meter,Electricity:Zone:L2-201-STAIRS1 THERMAL ZONE,hourly; !- [J]
Output:Meter:Cumulative,Electricity:Zone:L2-201-STAIRS1 THERMAL ZONE,hourly; !- [J]
Output:Meter,Electricity:Zone:L2-201-STORAGE THERMAL ZONE,hourly; !- [J]
Output:Meter:Cumulative,Electricity:Zone:L2-201-STORAGE THERMAL ZONE,hourly; !- [J]
Output:Meter,Electricity:Zone:L2-201-WALKINS THERMAL ZONE,hourly; !- [J]
Output:Meter:Cumulative,Electricity:Zone:L2-201-WALKINS THERMAL ZONE,hourly; !- [J]
Output:Meter,Electricity:Zone:L2-205-REFRIGERATIONEQUIPMENTROOMLOWER THERMAL ZONE,hourly; !- [J]
Output:Meter:Cumulative,Electricity:Zone:L2-205-REFRIGERATIONEQUIPMENTROOMLOWER THERMAL ZONE,hourly; !- [J]
Output:Meter,Electricity:Zone:L2-205-REFRIGERATIONEQUIPMENTROOMUPPER THERMAL ZONE,hourly; !- [J]
Output:Meter:Cumulative,Electricity:Zone:L2-205-REFRIGERATIONEQUIPMENTROOMUPPER THERMAL ZONE,hourly; !- [J]
Output:Meter,Electricity:Zone:M-123-STAIRS THERMAL ZONE,hourly; !- [J]
Output:Meter:Cumulative,Electricity:Zone:M-123-STAIRS THERMAL ZONE,hourly; !- [J]
Output:Meter,Electricity:Zone:M-152-MDF THERMAL ZONE,hourly; !- [J]
Output:Meter:Cumulative,Electricity:Zone:M-152-MDF THERMAL ZONE,hourly; !- [J]
Output:Meter,Electricity:Zone:M-153-CASHROOM THERMAL ZONE,hourly; !- [J]
Output:Meter:Cumulative,Electricity:Zone:M-153-CASHROOM THERMAL ZONE,hourly; !- [J]
Output:Meter,Electricity:Zone:M-154-EXGOFFICE THERMAL ZONE,hourly; !- [J]
Output:Meter:Cumulative,Electricity:Zone:M-154-EXGOFFICE THERMAL ZONE,hourly; !- [J]
Output:Meter,Electricity:Zone:M-155-EXGOFFICE THERMAL ZONE,hourly; !- [J]
Output:Meter:Cumulative,Electricity:Zone:M-155-EXGOFFICE THERMAL ZONE,hourly; !- [J]
Output:Meter,Electricity:Zone:M-156-STLOFFICE THERMAL ZONE,hourly; !- [J]
Output:Meter:Cumulative,Electricity:Zone:M-156-STLOFFICE THERMAL ZONE,hourly; !- [J]
Output:Meter,Electricity:Zone:M-158-BREAKROOM THERMAL ZONE,hourly; !- [J]
Output:Meter:Cumulative,Electricity:Zone:M-158-BREAKROOM THERMAL ZONE,hourly; !- [J]
Output:Meter,Electricity:Zone:M-159-EXGVEST THERMAL ZONE,hourly; !- [J]
Output:Meter:Cumulative,Electricity:Zone:M-159-EXGVEST THERMAL ZONE,hourly; !- [J]
Output:Meter,Electricity:Zone:M-161-MEN THERMAL ZONE,hourly; !- [J]
Output:Meter:Cumulative,Electricity:Zone:M-161-MEN THERMAL ZONE,hourly; !- [J]
Output:Meter,Electricity:Zone:M-162-PREPROOM THERMAL ZONE,hourly; !- [J]
Output:Meter:Cumulative,Electricity:Zone:M-162-PREPROOM THERMAL ZONE,hourly; !- [J]
Output:Meter,Electricity:Zone:M-163-MEATPREP THERMAL ZONE,hourly; !- [J]
Output:Meter:Cumulative,Electricity:Zone:M-163-MEATPREP THERMAL ZONE,hourly; !- [J]
Output:Meter,Electricity:Zone:M-164-MEATCOOLER THERMAL ZONE,hourly; !- [J]
Output:Meter:Cumulative,Electricity:Zone:M-164-MEATCOOLER THERMAL ZONE,hourly; !- [J]
Output:Meter,Electricity:Zone:M-201-EXGSTORAGE THERMAL ZONE,hourly; !- [J]
Output:Meter:Cumulative,Electricity:Zone:M-201-EXGSTORAGE THERMAL ZONE,hourly; !- [J]
Output:Meter,Electricity:Zone:M-BAKERYFREEZER THERMAL ZONE,hourly; !- [J]
Output:Meter:Cumulative,Electricity:Zone:M-BAKERYFREEZER THERMAL ZONE,hourly; !- [J]
Output:Meter,Electricity:Zone:M-EXGWOMEN THERMAL ZONE,hourly; !- [J]
Output:Meter:Cumulative,Electricity:Zone:M-EXGWOMEN THERMAL ZONE,hourly; !- [J]
Output:Meter,ElectricityNet:Facility,hourly; !- [J]
Output:Meter:Cumulative,ElectricityNet:Facility,hourly; !- [J]
Output:Meter,ElectricityNet:Plant,hourly; !- [J]
Output:Meter:Cumulative,ElectricityNet:Plant,hourly; !- [J]
Output:Meter,ElectricityPurchased:Facility,hourly; !- [J]
Output:Meter:Cumulative,ElectricityPurchased:Facility,hourly; !- [J]
Output:Meter,ElectricityPurchased:Plant,hourly; !- [J]
Output:Meter:Cumulative,ElectricityPurchased:Plant,hourly; !- [J]
Output:Meter,ElectricitySurplusSold:Facility,hourly; !- [J]
Output:Meter:Cumulative,ElectricitySurplusSold:Facility,hourly; !- [J]
Output:Meter,ElectricitySurplusSold:Plant,hourly; !- [J]
Output:Meter:Cumulative,ElectricitySurplusSold:Plant,hourly; !- [J]
Output:Meter,EnergyTransfer:Building,hourly; !- [J]
Output:Meter:Cumulative,EnergyTransfer:Building,hourly; !- [J]
Output:Meter,EnergyTransfer:Facility,hourly; !- [J]
Output:Meter:Cumulative,EnergyTransfer:Facility,hourly; !- [J]
Output:Meter,EnergyTransfer:HVAC,hourly; !- [J]
Output:Meter:Cumulative,EnergyTransfer:HVAC,hourly; !- [J]
Output:Meter,EnergyTransfer:Zone:L1-101-ENTRANCEEXIT THERMAL ZONE,hourly; !- [J]
Output:Meter:Cumulative,EnergyTransfer:Zone:L1-101-ENTRANCEEXIT THERMAL ZONE,hourly; !- [J]
Output:Meter,EnergyTransfer:Zone:L1-101-SALESAISLE1 THERMAL ZONE,hourly; !- [J]
Output:Meter:Cumulative,EnergyTransfer:Zone:L1-101-SALESAISLE1 THERMAL ZONE,hourly; !- [J]
Output:Meter,EnergyTransfer:Zone:L1-101-SALESAISLE10 THERMAL ZONE,hourly; !- [J]
Output:Meter:Cumulative,EnergyTransfer:Zone:L1-101-SALESAISLE10 THERMAL ZONE,hourly; !- [J]
Output:Meter,EnergyTransfer:Zone:L1-101-SALESAISLE2 THERMAL ZONE,hourly; !- [J]
Output:Meter:Cumulative,EnergyTransfer:Zone:L1-101-SALESAISLE2 THERMAL ZONE,hourly; !- [J]
Output:Meter,EnergyTransfer:Zone:L1-101-SALESAISLE3 THERMAL ZONE,hourly; !- [J]
Output:Meter:Cumulative,EnergyTransfer:Zone:L1-101-SALESAISLE3 THERMAL ZONE,hourly; !- [J]
Output:Meter,EnergyTransfer:Zone:L1-101-SALESAISLE4 THERMAL ZONE,hourly; !- [J]
Output:Meter:Cumulative,EnergyTransfer:Zone:L1-101-SALESAISLE4 THERMAL ZONE,hourly; !- [J]
Output:Meter,EnergyTransfer:Zone:L1-101-SALESAISLE5 THERMAL ZONE,hourly; !- [J]
Output:Meter:Cumulative,EnergyTransfer:Zone:L1-101-SALESAISLE5 THERMAL ZONE,hourly; !- [J]
Output:Meter,EnergyTransfer:Zone:L1-101-SALESAISLE6 THERMAL ZONE,hourly; !- [J]
Output:Meter:Cumulative,EnergyTransfer:Zone:L1-101-SALESAISLE6 THERMAL ZONE,hourly; !- [J]
Output:Meter,EnergyTransfer:Zone:L1-101-SALESAISLE7 THERMAL ZONE,hourly; !- [J]
Output:Meter:Cumulative,EnergyTransfer:Zone:L1-101-SALESAISLE7 THERMAL ZONE,hourly; !- [J]
Output:Meter,EnergyTransfer:Zone:L1-101-SALESAISLE8 THERMAL ZONE,hourly; !- [J]
Output:Meter:Cumulative,EnergyTransfer:Zone:L1-101-SALESAISLE8 THERMAL ZONE,hourly; !- [J]
Output:Meter,EnergyTransfer:Zone:L1-101-SALESAISLE9 THERMAL ZONE,hourly; !- [J]
Output:Meter:Cumulative,EnergyTransfer:Zone:L1-101-SALESAISLE9 THERMAL ZONE,hourly; !- [J]
Output:Meter,EnergyTransfer:Zone:L1-101-SALESAISLEBULK THERMAL ZONE,hourly; !- [J]
Output:Meter:Cumulative,EnergyTransfer:Zone:L1-101-SALESAISLEBULK THERMAL ZONE,hourly; !- [J]
Output:Meter,EnergyTransfer:Zone:L1-101-SALESCIRCULATION1 THERMAL ZONE,hourly; !- [J]
Output:Meter:Cumulative,EnergyTransfer:Zone:L1-101-SALESCIRCULATION1 THERMAL ZONE,hourly; !- [J]
Output:Meter,EnergyTransfer:Zone:L1-101-SALESCIRCULATION10 THERMAL ZONE,hourly; !- [J]
Output:Meter:Cumulative,EnergyTransfer:Zone:L1-101-SALESCIRCULATION10 THERMAL ZONE,hourly; !- [J]
Output:Meter,EnergyTransfer:Zone:L1-101-SALESCIRCULATION2 THERMAL ZONE,hourly; !- [J]
Output:Meter:Cumulative,EnergyTransfer:Zone:L1-101-SALESCIRCULATION2 THERMAL ZONE,hourly; !- [J]
Output:Meter,EnergyTransfer:Zone:L1-101-SALESCIRCULATION3 THERMAL ZONE,hourly; !- [J]
Output:Meter:Cumulative,EnergyTransfer:Zone:L1-101-SALESCIRCULATION3 THERMAL ZONE,hourly; !- [J]
Output:Meter,EnergyTransfer:Zone:L1-101-SALESCIRCULATION4 THERMAL ZONE,hourly; !- [J]
Output:Meter:Cumulative,EnergyTransfer:Zone:L1-101-SALESCIRCULATION4 THERMAL ZONE,hourly; !- [J]
Output:Meter,EnergyTransfer:Zone:L1-101-SALESCIRCULATION5 THERMAL ZONE,hourly; !- [J]
Output:Meter:Cumulative,EnergyTransfer:Zone:L1-101-SALESCIRCULATION5 THERMAL ZONE,hourly; !- [J]
Output:Meter,EnergyTransfer:Zone:L1-101-SALESCIRCULATION6 THERMAL ZONE,hourly; !- [J]
Output:Meter:Cumulative,EnergyTransfer:Zone:L1-101-SALESCIRCULATION6 THERMAL ZONE,hourly; !- [J]
Output:Meter,EnergyTransfer:Zone:L1-101-SALESCIRCULATION7 THERMAL ZONE,hourly; !- [J]
Output:Meter:Cumulative,EnergyTransfer:Zone:L1-101-SALESCIRCULATION7 THERMAL ZONE,hourly; !- [J]
Output:Meter,EnergyTransfer:Zone:L1-101-SALESCIRCULATION8 THERMAL ZONE,hourly; !- [J]
Output:Meter:Cumulative,EnergyTransfer:Zone:L1-101-SALESCIRCULATION8 THERMAL ZONE,hourly; !- [J]
Output:Meter,EnergyTransfer:Zone:L1-101-SALESCIRCULATION9 THERMAL ZONE,hourly; !- [J]
Output:Meter:Cumulative,EnergyTransfer:Zone:L1-101-SALESCIRCULATION9 THERMAL ZONE,hourly; !- [J]
Output:Meter,EnergyTransfer:Zone:L1-101-SALESCIRCULATIONMEATSEAFOOD THERMAL ZONE,hourly; !- [J]
Output:Meter:Cumulative,EnergyTransfer:Zone:L1-101-SALESCIRCULATIONMEATSEAFOOD THERMAL ZONE,hourly; !- [J]
Output:Meter,EnergyTransfer:Zone:L1-101-SALESREFRIGERATIONAISLE1 THERMAL ZONE,hourly; !- [J]
Output:Meter:Cumulative,EnergyTransfer:Zone:L1-101-SALESREFRIGERATIONAISLE1 THERMAL ZONE,hourly; !- [J]
Output:Meter,EnergyTransfer:Zone:L1-101-SALESREFRIGERATIONAISLE2 THERMAL ZONE,hourly; !- [J]
Output:Meter:Cumulative,EnergyTransfer:Zone:L1-101-SALESREFRIGERATIONAISLE2 THERMAL ZONE,hourly; !- [J]
Output:Meter,EnergyTransfer:Zone:L1-101-SALESREFRIGERATIONAISLE3 THERMAL ZONE,hourly; !- [J]
Output:Meter:Cumulative,EnergyTransfer:Zone:L1-101-SALESREFRIGERATIONAISLE3 THERMAL ZONE,hourly; !- [J]
Output:Meter,EnergyTransfer:Zone:L1-101-SALESREFRIGERATIONAISLE4 THERMAL ZONE,hourly; !- [J]
Output:Meter:Cumulative,EnergyTransfer:Zone:L1-101-SALESREFRIGERATIONAISLE4 THERMAL ZONE,hourly; !- [J]
Output:Meter,EnergyTransfer:Zone:L1-101-SALESREFRIGERATIONAISLE5 THERMAL ZONE,hourly; !- [J]
Output:Meter:Cumulative,EnergyTransfer:Zone:L1-101-SALESREFRIGERATIONAISLE5 THERMAL ZONE,hourly; !- [J]
Output:Meter,EnergyTransfer:Zone:L1-101-SALESREFRIGERATIONAISLE6 THERMAL ZONE,hourly; !- [J]
Output:Meter:Cumulative,EnergyTransfer:Zone:L1-101-SALESREFRIGERATIONAISLE6 THERMAL ZONE,hourly; !- [J]
Output:Meter,EnergyTransfer:Zone:L1-101-SALESREFRIGERATIONAISLE7 THERMAL ZONE,hourly; !- [J]
Output:Meter:Cumulative,EnergyTransfer:Zone:L1-101-SALESREFRIGERATIONAISLE7 THERMAL ZONE,hourly; !- [J]
Output:Meter,EnergyTransfer:Zone:L1-101-SALESREFRIGERATIONENDCAP1 THERMAL ZONE,hourly; !- [J]
Output:Meter:Cumulative,EnergyTransfer:Zone:L1-101-SALESREFRIGERATIONENDCAP1 THERMAL ZONE,hourly; !- [J]
Output:Meter,EnergyTransfer:Zone:L1-101-SALESREFRIGERATIONENDCAP2 THERMAL ZONE,hourly; !- [J]
Output:Meter:Cumulative,EnergyTransfer:Zone:L1-101-SALESREFRIGERATIONENDCAP2 THERMAL ZONE,hourly; !- [J]
Output:Meter,EnergyTransfer:Zone:L1-101-SALESREFRIGERATIONENDCAP3 THERMAL ZONE,hourly; !- [J]
Output:Meter:Cumulative,EnergyTransfer:Zone:L1-101-SALESREFRIGERATIONENDCAP3 THERMAL ZONE,hourly; !- [J]
Output:Meter,EnergyTransfer:Zone:L1-101-SALESREFRIGERATIONREACHINBEER THERMAL ZONE,hourly; !- [J]
Output:Meter:Cumulative,EnergyTransfer:Zone:L1-101-SALESREFRIGERATIONREACHINBEER THERMAL ZONE,hourly; !- [J]
Output:Meter,EnergyTransfer:Zone:L1-101-SALESREFRIGERATIONREACHINBEVERAGES THERMAL ZONE,hourly; !- [J]
Output:Meter:Cumulative,EnergyTransfer:Zone:L1-101-SALESREFRIGERATIONREACHINBEVERAGES THERMAL ZONE,hourly; !- [J]
Output:Meter,EnergyTransfer:Zone:L1-101-SALESREFRIGERATIONREACHINCHEES THERMAL ZONE,hourly; !- [J]
Output:Meter:Cumulative,EnergyTransfer:Zone:L1-101-SALESREFRIGERATIONREACHINCHEES THERMAL ZONE,hourly; !- [J]
Output:Meter,EnergyTransfer:Zone:L1-101-SALESREFRIGERATIONREACHINDAIRY1 THERMAL ZONE,hourly; !- [J]
Output:Meter:Cumulative,EnergyTransfer:Zone:L1-101-SALESREFRIGERATIONREACHINDAIRY1 THERMAL ZONE,hourly; !- [J]
Output:Meter,EnergyTransfer:Zone:L1-101-SALESREFRIGERATIONREACHINDAIRY2 THERMAL ZONE,hourly; !- [J]
Output:Meter:Cumulative,EnergyTransfer:Zone:L1-101-SALESREFRIGERATIONREACHINDAIRY2 THERMAL ZONE,hourly; !- [J]
Output:Meter,EnergyTransfer:Zone:L1-101-SALESREFRIGERATIONREACHINDAIRY3 THERMAL ZONE,hourly; !- [J]
Output:Meter:Cumulative,EnergyTransfer:Zone:L1-101-SALESREFRIGERATIONREACHINDAIRY3 THERMAL ZONE,hourly; !- [J]
Output:Meter,EnergyTransfer:Zone:L1-101-SALESREFRIGERATIONREACHINMEATSUBSTITUTES THERMAL ZONE,hourly; !- [J]
Output:Meter:Cumulative,EnergyTransfer:Zone:L1-101-SALESREFRIGERATIONREACHINMEATSUBSTITUTES THERMAL ZONE,hourly; !- [J]
Output:Meter,EnergyTransfer:Zone:L1-101-SALESREFRIGERATIONREACHINPREPARED THERMAL ZONE,hourly; !- [J]
Output:Meter:Cumulative,EnergyTransfer:Zone:L1-101-SALESREFRIGERATIONREACHINPREPARED THERMAL ZONE,hourly; !- [J]
Output:Meter,EnergyTransfer:Zone:L1-101-SALESWINE THERMAL ZONE,hourly; !- [J]
Output:Meter:Cumulative,EnergyTransfer:Zone:L1-101-SALESWINE THERMAL ZONE,hourly; !- [J]
Output:Meter,EnergyTransfer:Zone:L1-102-CHECKOUT1 THERMAL ZONE,hourly; !- [J]
Output:Meter:Cumulative,EnergyTransfer:Zone:L1-102-CHECKOUT1 THERMAL ZONE,hourly; !- [J]
Output:Meter,EnergyTransfer:Zone:L1-102-CHECKOUT2 THERMAL ZONE,hourly; !- [J]
Output:Meter:Cumulative,EnergyTransfer:Zone:L1-102-CHECKOUT2 THERMAL ZONE,hourly; !- [J]
Output:Meter,EnergyTransfer:Zone:L1-102-CHECKOUT3 THERMAL ZONE,hourly; !- [J]
Output:Meter:Cumulative,EnergyTransfer:Zone:L1-102-CHECKOUT3 THERMAL ZONE,hourly; !- [J]
Output:Meter,EnergyTransfer:Zone:L1-102-CHECKOUT4 THERMAL ZONE,hourly; !- [J]
Output:Meter:Cumulative,EnergyTransfer:Zone:L1-102-CHECKOUT4 THERMAL ZONE,hourly; !- [J]
Output:Meter,EnergyTransfer:Zone:L1-102-CHECKOUTBAGGING THERMAL ZONE,hourly; !- [J]
Output:Meter:Cumulative,EnergyTransfer:Zone:L1-102-CHECKOUTBAGGING THERMAL ZONE,hourly; !- [J]
Output:Meter,EnergyTransfer:Zone:L1-102-EXIT THERMAL ZONE,hourly; !- [J]
Output:Meter:Cumulative,EnergyTransfer:Zone:L1-102-EXIT THERMAL ZONE,hourly; !- [J]
Output:Meter,EnergyTransfer:Zone:L1-102-RECEIVINGOFFICE THERMAL ZONE,hourly; !- [J]
Output:Meter:Cumulative,EnergyTransfer:Zone:L1-102-RECEIVINGOFFICE THERMAL ZONE,hourly; !- [J]
Output:Meter,EnergyTransfer:Zone:L1-102-SELFCHECKOUT THERMAL ZONE,hourly; !- [J]
Output:Meter:Cumulative,EnergyTransfer:Zone:L1-102-SELFCHECKOUT THERMAL ZONE,hourly; !- [J]
Output:Meter,EnergyTransfer:Zone:L1-103-FLORAL THERMAL ZONE,hourly; !- [J]
Output:Meter:Cumulative,EnergyTransfer:Zone:L1-103-FLORAL THERMAL ZONE,hourly; !- [J]
Output:Meter,EnergyTransfer:Zone:L1-104-PRODUCE THERMAL ZONE,hourly; !- [J]
Output:Meter:Cumulative,EnergyTransfer:Zone:L1-104-PRODUCE THERMAL ZONE,hourly; !- [J]
Output:Meter,EnergyTransfer:Zone:L1-104-PRODUCECIRCULATION THERMAL ZONE,hourly; !- [J]
Output:Meter:Cumulative,EnergyTransfer:Zone:L1-104-PRODUCECIRCULATION THERMAL ZONE,hourly; !- [J]
Output:Meter,EnergyTransfer:Zone:L1-104-PRODUCECOOLERS1 THERMAL ZONE,hourly; !- [J]
Output:Meter:Cumulative,EnergyTransfer:Zone:L1-104-PRODUCECOOLERS1 THERMAL ZONE,hourly; !- [J]
Output:Meter,EnergyTransfer:Zone:L1-104-PRODUCECOOLERS2 THERMAL ZONE,hourly; !- [J]
Output:Meter:Cumulative,EnergyTransfer:Zone:L1-104-PRODUCECOOLERS2 THERMAL ZONE,hourly; !- [J]
Output:Meter,EnergyTransfer:Zone:L1-104-PRODUCECOOLERS3 THERMAL ZONE,hourly; !- [J]
Output:Meter:Cumulative,EnergyTransfer:Zone:L1-104-PRODUCECOOLERS3 THERMAL ZONE,hourly; !- [J]
Output:Meter,EnergyTransfer:Zone:L1-106-RECEIVING THERMAL ZONE,hourly; !- [J]
Output:Meter:Cumulative,EnergyTransfer:Zone:L1-106-RECEIVING THERMAL ZONE,hourly; !- [J]
Output:Meter,EnergyTransfer:Zone:L1-106-RECEIVINGTRANSFORMERS2 THERMAL ZONE,hourly; !- [J]
Output:Meter:Cumulative,EnergyTransfer:Zone:L1-106-RECEIVINGTRANSFORMERS2 THERMAL ZONE,hourly; !- [J]
Output:Meter,EnergyTransfer:Zone:L1-108-PRODUCECOOLER THERMAL ZONE,hourly; !- [J]
Output:Meter:Cumulative,EnergyTransfer:Zone:L1-108-PRODUCECOOLER THERMAL ZONE,hourly; !- [J]
Output:Meter,EnergyTransfer:Zone:L1-109-CORRIDOR THERMAL ZONE,hourly; !- [J]
Output:Meter:Cumulative,EnergyTransfer:Zone:L1-109-CORRIDOR THERMAL ZONE,hourly; !- [J]
Output:Meter,EnergyTransfer:Zone:L1-110-PRODUCEPREP THERMAL ZONE,hourly; !- [J]
Output:Meter:Cumulative,EnergyTransfer:Zone:L1-110-PRODUCEPREP THERMAL ZONE,hourly; !- [J]
Output:Meter,EnergyTransfer:Zone:L1-111-GROCERYFREEZER THERMAL ZONE,hourly; !- [J]
Output:Meter:Cumulative,EnergyTransfer:Zone:L1-111-GROCERYFREEZER THERMAL ZONE,hourly; !- [J]
Output:Meter,EnergyTransfer:Zone:L1-112-DAIRYCOOLER THERMAL ZONE,hourly; !- [J]
Output:Meter:Cumulative,EnergyTransfer:Zone:L1-112-DAIRYCOOLER THERMAL ZONE,hourly; !- [J]
Output:Meter,EnergyTransfer:Zone:L1-113-BEERCAGE THERMAL ZONE,hourly; !- [J]
Output:Meter:Cumulative,EnergyTransfer:Zone:L1-113-BEERCAGE THERMAL ZONE,hourly; !- [J]
Output:Meter,EnergyTransfer:Zone:L1-114-BACKSTOCK THERMAL ZONE,hourly; !- [J]
Output:Meter:Cumulative,EnergyTransfer:Zone:L1-114-BACKSTOCK THERMAL ZONE,hourly; !- [J]
Output:Meter,EnergyTransfer:Zone:L1-115-MEATSEAFOODCOOLER THERMAL ZONE,hourly; !- [J]
Output:Meter:Cumulative,EnergyTransfer:Zone:L1-115-MEATSEAFOODCOOLER THERMAL ZONE,hourly; !- [J]
Output:Meter,EnergyTransfer:Zone:L1-116-MEATSERVICE THERMAL ZONE,hourly; !- [J]
Output:Meter:Cumulative,EnergyTransfer:Zone:L1-116-MEATSERVICE THERMAL ZONE,hourly; !- [J]
Output:Meter,EnergyTransfer:Zone:L1-117-SEAFOODSURFACE THERMAL ZONE,hourly; !- [J]
Output:Meter:Cumulative,EnergyTransfer:Zone:L1-117-SEAFOODSURFACE THERMAL ZONE,hourly; !- [J]
Output:Meter,EnergyTransfer:Zone:L1-118-PREPAREDFOODSPREP THERMAL ZONE,hourly; !- [J]
Output:Meter:Cumulative,EnergyTransfer:Zone:L1-118-PREPAREDFOODSPREP THERMAL ZONE,hourly; !- [J]
Output:Meter,EnergyTransfer:Zone:L1-119-DELICOOLER THERMAL ZONE,hourly; !- [J]
Output:Meter:Cumulative,EnergyTransfer:Zone:L1-119-DELICOOLER THERMAL ZONE,hourly; !- [J]
Output:Meter,EnergyTransfer:Zone:L1-120-WOMEN THERMAL ZONE,hourly; !- [J]
Output:Meter:Cumulative,EnergyTransfer:Zone:L1-120-WOMEN THERMAL ZONE,hourly; !- [J]
Output:Meter,EnergyTransfer:Zone:L1-121-MEN THERMAL ZONE,hourly; !- [J]
Output:Meter:Cumulative,EnergyTransfer:Zone:L1-121-MEN THERMAL ZONE,hourly; !- [J]
Output:Meter,EnergyTransfer:Zone:L1-122-CORRIDOR THERMAL ZONE,hourly; !- [J]
Output:Meter:Cumulative,EnergyTransfer:Zone:L1-122-CORRIDOR THERMAL ZONE,hourly; !- [J]
Output:Meter,EnergyTransfer:Zone:L1-123-STAIRS THERMAL ZONE,hourly; !- [J]
Output:Meter:Cumulative,EnergyTransfer:Zone:L1-123-STAIRS THERMAL ZONE,hourly; !- [J]
Output:Meter,EnergyTransfer:Zone:L1-124-SPECIALTYSERVICE THERMAL ZONE,hourly; !- [J]
Output:Meter:Cumulative,EnergyTransfer:Zone:L1-124-SPECIALTYSERVICE THERMAL ZONE,hourly; !- [J]
Output:Meter,EnergyTransfer:Zone:L1-125-PREPAREDFOODS1 THERMAL ZONE,hourly; !- [J]
Output:Meter:Cumulative,EnergyTransfer:Zone:L1-125-PREPAREDFOODS1 THERMAL ZONE,hourly; !- [J]
Output:Meter,EnergyTransfer:Zone:L1-125-PREPAREDFOODS2 THERMAL ZONE,hourly; !- [J]
Output:Meter:Cumulative,EnergyTransfer:Zone:L1-125-PREPAREDFOODS2 THERMAL ZONE,hourly; !- [J]
Output:Meter,EnergyTransfer:Zone:L1-126-BAKERYSERVICE THERMAL ZONE,hourly; !- [J]
Output:Meter:Cumulative,EnergyTransfer:Zone:L1-126-BAKERYSERVICE THERMAL ZONE,hourly; !- [J]
Output:Meter,EnergyTransfer:Zone:L1-127-COFFEE THERMAL ZONE,hourly; !- [J]
Output:Meter:Cumulative,EnergyTransfer:Zone:L1-127-COFFEE THERMAL ZONE,hourly; !- [J]
Output:Meter,EnergyTransfer:Zone:L1-SHAFT THERMAL ZONE,hourly; !- [J]
Output:Meter:Cumulative,EnergyTransfer:Zone:L1-SHAFT THERMAL ZONE,hourly; !- [J]
Output:Meter,EnergyTransfer:Zone:L1-STAIRS THERMAL ZONE,hourly; !- [J]
Output:Meter:Cumulative,EnergyTransfer:Zone:L1-STAIRS THERMAL ZONE,hourly; !- [J]
Output:Meter,EnergyTransfer:Zone:L1S1-BACKSTOCK THERMAL ZONE,hourly; !- [J]
Output:Meter:Cumulative,EnergyTransfer:Zone:L1S1-BACKSTOCK THERMAL ZONE,hourly; !- [J]
Output:Meter,EnergyTransfer:Zone:L1S1-BEERCAGE THERMAL ZONE,hourly; !- [J]
Output:Meter:Cumulative,EnergyTransfer:Zone:L1S1-BEERCAGE THERMAL ZONE,hourly; !- [J]
Output:Meter,EnergyTransfer:Zone:L1S1-CHECKOUT THERMAL ZONE,hourly; !- [J]
Output:Meter:Cumulative,EnergyTransfer:Zone:L1S1-CHECKOUT THERMAL ZONE,hourly; !- [J]
Output:Meter,EnergyTransfer:Zone:L1S1-COFFEE THERMAL ZONE,hourly; !- [J]
Output:Meter:Cumulative,EnergyTransfer:Zone:L1S1-COFFEE THERMAL ZONE,hourly; !- [J]
Output:Meter,EnergyTransfer:Zone:L1S1-CORRIDOR THERMAL ZONE,hourly; !- [J]
Output:Meter:Cumulative,EnergyTransfer:Zone:L1S1-CORRIDOR THERMAL ZONE,hourly; !- [J]
Output:Meter,EnergyTransfer:Zone:L1S1-DAIRYCOOLER THERMAL ZONE,hourly; !- [J]
Output:Meter:Cumulative,EnergyTransfer:Zone:L1S1-DAIRYCOOLER THERMAL ZONE,hourly; !- [J]
Output:Meter,EnergyTransfer:Zone:L1S1-DELICOOLER THERMAL ZONE,hourly; !- [J]
Output:Meter:Cumulative,EnergyTransfer:Zone:L1S1-DELICOOLER THERMAL ZONE,hourly; !- [J]
Output:Meter,EnergyTransfer:Zone:L1S1-LOADING THERMAL ZONE,hourly; !- [J]
Output:Meter:Cumulative,EnergyTransfer:Zone:L1S1-LOADING THERMAL ZONE,hourly; !- [J]
Output:Meter,EnergyTransfer:Zone:L1S1-MEATSEAFOODCOOLER THERMAL ZONE,hourly; !- [J]
Output:Meter:Cumulative,EnergyTransfer:Zone:L1S1-MEATSEAFOODCOOLER THERMAL ZONE,hourly; !- [J]
Output:Meter,EnergyTransfer:Zone:L1S1-MEN THERMAL ZONE,hourly; !- [J]
Output:Meter:Cumulative,EnergyTransfer:Zone:L1S1-MEN THERMAL ZONE,hourly; !- [J]
Output:Meter,EnergyTransfer:Zone:L1S1-PREPAREDFOODS THERMAL ZONE,hourly; !- [J]
Output:Meter:Cumulative,EnergyTransfer:Zone:L1S1-PREPAREDFOODS THERMAL ZONE,hourly; !- [J]
Output:Meter,EnergyTransfer:Zone:L1S1-PREPAREDFOODSPREP THERMAL ZONE,hourly; !- [J]
Output:Meter:Cumulative,EnergyTransfer:Zone:L1S1-PREPAREDFOODSPREP THERMAL ZONE,hourly; !- [J]
Output:Meter,EnergyTransfer:Zone:L1S1-PRODUCE THERMAL ZONE,hourly; !- [J]
Output:Meter:Cumulative,EnergyTransfer:Zone:L1S1-PRODUCE THERMAL ZONE,hourly; !- [J]
Output:Meter,EnergyTransfer:Zone:L1S1-SALESAISLE1 THERMAL ZONE,hourly; !- [J]
Output:Meter:Cumulative,EnergyTransfer:Zone:L1S1-SALESAISLE1 THERMAL ZONE,hourly; !- [J]
Output:Meter,EnergyTransfer:Zone:L1S1-SALESAISLE4 THERMAL ZONE,hourly; !- [J]
Output:Meter:Cumulative,EnergyTransfer:Zone:L1S1-SALESAISLE4 THERMAL ZONE,hourly; !- [J]
Output:Meter,EnergyTransfer:Zone:L1S1-SALESNORTH THERMAL ZONE,hourly; !- [J]
Output:Meter:Cumulative,EnergyTransfer:Zone:L1S1-SALESNORTH THERMAL ZONE,hourly; !- [J]
Output:Meter,EnergyTransfer:Zone:L1S1-SALESREFRIGERATIONAISLE6 THERMAL ZONE,hourly; !- [J]
Output:Meter:Cumulative,EnergyTransfer:Zone:L1S1-SALESREFRIGERATIONAISLE6 THERMAL ZONE,hourly; !- [J]
Output:Meter,EnergyTransfer:Zone:L1S1-SALESREFRIGERATIONREACHINDAIRY2 THERMAL ZONE,hourly; !- [J]
Output:Meter:Cumulative,EnergyTransfer:Zone:L1S1-SALESREFRIGERATIONREACHINDAIRY2 THERMAL ZONE,hourly; !- [J]
Output:Meter,EnergyTransfer:Zone:L1S1-SALESREFRIGERATIONREACHPREPARED THERMAL ZONE,hourly; !- [J]
Output:Meter:Cumulative,EnergyTransfer:Zone:L1S1-SALESREFRIGERATIONREACHPREPARED THERMAL ZONE,hourly; !- [J]
Output:Meter,EnergyTransfer:Zone:L1S1-SALESSOUTH THERMAL ZONE,hourly; !- [J]
Output:Meter:Cumulative,EnergyTransfer:Zone:L1S1-SALESSOUTH THERMAL ZONE,hourly; !- [J]
Output:Meter,EnergyTransfer:Zone:L1S1-SEAFOODSURFACE THERMAL ZONE,hourly; !- [J]
Output:Meter:Cumulative,EnergyTransfer:Zone:L1S1-SEAFOODSURFACE THERMAL ZONE,hourly; !- [J]
Output:Meter,EnergyTransfer:Zone:L1S1-SHAFT THERMAL ZONE,hourly; !- [J]
Output:Meter:Cumulative,EnergyTransfer:Zone:L1S1-SHAFT THERMAL ZONE,hourly; !- [J]
Output:Meter,EnergyTransfer:Zone:L1S1-SPECIALTYSERVICE THERMAL ZONE,hourly; !- [J]
Output:Meter:Cumulative,EnergyTransfer:Zone:L1S1-SPECIALTYSERVICE THERMAL ZONE,hourly; !- [J]
Output:Meter,EnergyTransfer:Zone:L1S1-STAIRS THERMAL ZONE,hourly; !- [J]
Output:Meter:Cumulative,EnergyTransfer:Zone:L1S1-STAIRS THERMAL ZONE,hourly; !- [J]
Output:Meter,EnergyTransfer:Zone:L1S1-WOMEN THERMAL ZONE,hourly; !- [J]
Output:Meter:Cumulative,EnergyTransfer:Zone:L1S1-WOMEN THERMAL ZONE,hourly; !- [J]
Output:Meter,EnergyTransfer:Zone:L1S2-AISLESEAST THERMAL ZONE,hourly; !- [J]
Output:Meter:Cumulative,EnergyTransfer:Zone:L1S2-AISLESEAST THERMAL ZONE,hourly; !- [J]
Output:Meter,EnergyTransfer:Zone:L1S2-AISLESWEST THERMAL ZONE,hourly; !- [J]
Output:Meter:Cumulative,EnergyTransfer:Zone:L1S2-AISLESWEST THERMAL ZONE,hourly; !- [J]
Output:Meter,EnergyTransfer:Zone:L1S2-BAKERY THERMAL ZONE,hourly; !- [J]
Output:Meter:Cumulative,EnergyTransfer:Zone:L1S2-BAKERY THERMAL ZONE,hourly; !- [J]
Output:Meter,EnergyTransfer:Zone:L1S2-CHECKOUT THERMAL ZONE,hourly; !- [J]
Output:Meter:Cumulative,EnergyTransfer:Zone:L1S2-CHECKOUT THERMAL ZONE,hourly; !- [J]
Output:Meter,EnergyTransfer:Zone:L1S2-LOADINGBOH THERMAL ZONE,hourly; !- [J]
Output:Meter:Cumulative,EnergyTransfer:Zone:L1S2-LOADINGBOH THERMAL ZONE,hourly; !- [J]
Output:Meter,EnergyTransfer:Zone:L1S2-REACHINPREPARED THERMAL ZONE,hourly; !- [J]
Output:Meter:Cumulative,EnergyTransfer:Zone:L1S2-REACHINPREPARED THERMAL ZONE,hourly; !- [J]
Output:Meter,EnergyTransfer:Zone:L1S2-SHAFT THERMAL ZONE,hourly; !- [J]
Output:Meter:Cumulative,EnergyTransfer:Zone:L1S2-SHAFT THERMAL ZONE,hourly; !- [J]
Output:Meter,EnergyTransfer:Zone:L1S2-SHAFT2 THERMAL ZONE,hourly; !- [J]
Output:Meter:Cumulative,EnergyTransfer:Zone:L1S2-SHAFT2 THERMAL ZONE,hourly; !- [J]
Output:Meter,EnergyTransfer:Zone:L2-201-CORRIDOR THERMAL ZONE,hourly; !- [J]
Output:Meter:Cumulative,EnergyTransfer:Zone:L2-201-CORRIDOR THERMAL ZONE,hourly; !- [J]
Output:Meter,EnergyTransfer:Zone:L2-201-EXGSTORAGE THERMAL ZONE,hourly; !- [J]
Output:Meter:Cumulative,EnergyTransfer:Zone:L2-201-EXGSTORAGE THERMAL ZONE,hourly; !- [J]
Output:Meter,EnergyTransfer:Zone:L2-201-STAIRS1 THERMAL ZONE,hourly; !- [J]
Output:Meter:Cumulative,EnergyTransfer:Zone:L2-201-STAIRS1 THERMAL ZONE,hourly; !- [J]
Output:Meter,EnergyTransfer:Zone:L2-201-STORAGE THERMAL ZONE,hourly; !- [J]
Output:Meter:Cumulative,EnergyTransfer:Zone:L2-201-STORAGE THERMAL ZONE,hourly; !- [J]
Output:Meter,EnergyTransfer:Zone:L2-201-WALKINS THERMAL ZONE,hourly; !- [J]
Output:Meter:Cumulative,EnergyTransfer:Zone:L2-201-WALKINS THERMAL ZONE,hourly; !- [J]
Output:Meter,EnergyTransfer:Zone:L2-205-REFRIGERATIONEQUIPMENTROOMLOWER THERMAL ZONE,hourly; !- [J]
Output:Meter:Cumulative,EnergyTransfer:Zone:L2-205-REFRIGERATIONEQUIPMENTROOMLOWER THERMAL ZONE,hourly; !- [J]
Output:Meter,EnergyTransfer:Zone:L2-205-REFRIGERATIONEQUIPMENTROOMUPPER THERMAL ZONE,hourly; !- [J]
Output:Meter:Cumulative,EnergyTransfer:Zone:L2-205-REFRIGERATIONEQUIPMENTROOMUPPER THERMAL ZONE,hourly; !- [J]
Output:Meter,EnergyTransfer:Zone:M-123-STAIRS THERMAL ZONE,hourly; !- [J]
Output:Meter:Cumulative,EnergyTransfer:Zone:M-123-STAIRS THERMAL ZONE,hourly; !- [J]
Output:Meter,EnergyTransfer:Zone:M-151-STAIRS1 THERMAL ZONE,hourly; !- [J]
Output:Meter:Cumulative,EnergyTransfer:Zone:M-151-STAIRS1 THERMAL ZONE,hourly; !- [J]
Output:Meter,EnergyTransfer:Zone:M-152-MDF THERMAL ZONE,hourly; !- [J]
Output:Meter:Cumulative,EnergyTransfer:Zone:M-152-MDF THERMAL ZONE,hourly; !- [J]
Output:Meter,EnergyTransfer:Zone:M-153-CASHROOM THERMAL ZONE,hourly; !- [J]
Output:Meter:Cumulative,EnergyTransfer:Zone:M-153-CASHROOM THERMAL ZONE,hourly; !- [J]
Output:Meter,EnergyTransfer:Zone:M-154-EXGOFFICE THERMAL ZONE,hourly; !- [J]
Output:Meter:Cumulative,EnergyTransfer:Zone:M-154-EXGOFFICE THERMAL ZONE,hourly; !- [J]
Output:Meter,EnergyTransfer:Zone:M-155-EXGOFFICE THERMAL ZONE,hourly; !- [J]
Output:Meter:Cumulative,EnergyTransfer:Zone:M-155-EXGOFFICE THERMAL ZONE,hourly; !- [J]
Output:Meter,EnergyTransfer:Zone:M-156-STLOFFICE THERMAL ZONE,hourly; !- [J]
Output:Meter:Cumulative,EnergyTransfer:Zone:M-156-STLOFFICE THERMAL ZONE,hourly; !- [J]
Output:Meter,EnergyTransfer:Zone:M-157-EXGOFFICE THERMAL ZONE,hourly; !- [J]
Output:Meter:Cumulative,EnergyTransfer:Zone:M-157-EXGOFFICE THERMAL ZONE,hourly; !- [J]
Output:Meter,EnergyTransfer:Zone:M-158-BREAKROOM THERMAL ZONE,hourly; !- [J]
Output:Meter:Cumulative,EnergyTransfer:Zone:M-158-BREAKROOM THERMAL ZONE,hourly; !- [J]
Output:Meter,EnergyTransfer:Zone:M-159-EXGVEST THERMAL ZONE,hourly; !- [J]
Output:Meter:Cumulative,EnergyTransfer:Zone:M-159-EXGVEST THERMAL ZONE,hourly; !- [J]
Output:Meter,EnergyTransfer:Zone:M-161-MEN THERMAL ZONE,hourly; !- [J]
Output:Meter:Cumulative,EnergyTransfer:Zone:M-161-MEN THERMAL ZONE,hourly; !- [J]
Output:Meter,EnergyTransfer:Zone:M-162-PREPROOM THERMAL ZONE,hourly; !- [J]
Output:Meter:Cumulative,EnergyTransfer:Zone:M-162-PREPROOM THERMAL ZONE,hourly; !- [J]
Output:Meter,EnergyTransfer:Zone:M-163-MEATPREP THERMAL ZONE,hourly; !- [J]
Output:Meter:Cumulative,EnergyTransfer:Zone:M-163-MEATPREP THERMAL ZONE,hourly; !- [J]
Output:Meter,EnergyTransfer:Zone:M-164-MEATCOOLER THERMAL ZONE,hourly; !- [J]
Output:Meter:Cumulative,EnergyTransfer:Zone:M-164-MEATCOOLER THERMAL ZONE,hourly; !- [J]
Output:Meter,EnergyTransfer:Zone:M-201-EXGSTORAGE THERMAL ZONE,hourly; !- [J]
Output:Meter:Cumulative,EnergyTransfer:Zone:M-201-EXGSTORAGE THERMAL ZONE,hourly; !- [J]
Output:Meter,EnergyTransfer:Zone:M-BAKERYFREEZER THERMAL ZONE,hourly; !- [J]
Output:Meter:Cumulative,EnergyTransfer:Zone:M-BAKERYFREEZER THERMAL ZONE,hourly; !- [J]
Output:Meter,EnergyTransfer:Zone:M-EXGWOMEN THERMAL ZONE,hourly; !- [J]
Output:Meter:Cumulative,EnergyTransfer:Zone:M-EXGWOMEN THERMAL ZONE,hourly; !- [J]
Output:Meter,Exterior Lighting:ExteriorLights:Electricity,hourly; !- [J]
Output:Meter:Cumulative,Exterior Lighting:ExteriorLights:Electricity,hourly; !- [J]
Output:Meter,ExteriorLights:Electricity,hourly; !- [J]
Output:Meter:Cumulative,ExteriorLights:Electricity,hourly; !- [J]
Output:Meter,Fans:Electricity,hourly; !- [J]
Output:Meter:Cumulative,Fans:Electricity,hourly; !- [J]
Output:Meter,Gas:Facility,hourly; !- [J]
Output:Meter:Cumulative,Gas:Facility,hourly; !- [J]
Output:Meter,Gas:HVAC,hourly; !- [J]
Output:Meter:Cumulative,Gas:HVAC,hourly; !- [J]
Output:Meter,General:Fans:Electricity,hourly; !- [J]
Output:Meter:Cumulative,General:Fans:Electricity,hourly; !- [J]
Output:Meter,General:Refrigeration:Electricity,hourly; !- [J]
Output:Meter:Cumulative,General:Refrigeration:Electricity,hourly; !- [J]
Output:Meter,Grocery Freezer:InteriorLights:Electricity,hourly; !- [J]
Output:Meter:Cumulative,Grocery Freezer:InteriorLights:Electricity,hourly; !- [J]
Output:Meter,Heating:Electricity,hourly; !- [J]
Output:Meter:Cumulative,Heating:Electricity,hourly; !- [J]
Output:Meter,Heating:EnergyTransfer,hourly; !- [J]
Output:Meter:Cumulative,Heating:EnergyTransfer,hourly; !- [J]
Output:Meter,Heating:EnergyTransfer:Zone:L1-101-ENTRANCEEXIT THERMAL ZONE,hourly; !- [J]
Output:Meter:Cumulative,Heating:EnergyTransfer:Zone:L1-101-ENTRANCEEXIT THERMAL ZONE,hourly; !- [J]
Output:Meter,Heating:EnergyTransfer:Zone:L1-101-SALESAISLE1 THERMAL ZONE,hourly; !- [J]
Output:Meter:Cumulative,Heating:EnergyTransfer:Zone:L1-101-SALESAISLE1 THERMAL ZONE,hourly; !- [J]
Output:Meter,Heating:EnergyTransfer:Zone:L1-101-SALESAISLE10 THERMAL ZONE,hourly; !- [J]
Output:Meter:Cumulative,Heating:EnergyTransfer:Zone:L1-101-SALESAISLE10 THERMAL ZONE,hourly; !- [J]
Output:Meter,Heating:EnergyTransfer:Zone:L1-101-SALESAISLE2 THERMAL ZONE,hourly; !- [J]
Output:Meter:Cumulative,Heating:EnergyTransfer:Zone:L1-101-SALESAISLE2 THERMAL ZONE,hourly; !- [J]
Output:Meter,Heating:EnergyTransfer:Zone:L1-101-SALESAISLE3 THERMAL ZONE,hourly; !- [J]
Output:Meter:Cumulative,Heating:EnergyTransfer:Zone:L1-101-SALESAISLE3 THERMAL ZONE,hourly; !- [J]
Output:Meter,Heating:EnergyTransfer:Zone:L1-101-SALESAISLE4 THERMAL ZONE,hourly; !- [J]
Output:Meter:Cumulative,Heating:EnergyTransfer:Zone:L1-101-SALESAISLE4 THERMAL ZONE,hourly; !- [J]
Output:Meter,Heating:EnergyTransfer:Zone:L1-101-SALESAISLE5 THERMAL ZONE,hourly; !- [J]
Output:Meter:Cumulative,Heating:EnergyTransfer:Zone:L1-101-SALESAISLE5 THERMAL ZONE,hourly; !- [J]
Output:Meter,Heating:EnergyTransfer:Zone:L1-101-SALESAISLE6 THERMAL ZONE,hourly; !- [J]
Output:Meter:Cumulative,Heating:EnergyTransfer:Zone:L1-101-SALESAISLE6 THERMAL ZONE,hourly; !- [J]
Output:Meter,Heating:EnergyTransfer:Zone:L1-101-SALESAISLE7 THERMAL ZONE,hourly; !- [J]
Output:Meter:Cumulative,Heating:EnergyTransfer:Zone:L1-101-SALESAISLE7 THERMAL ZONE,hourly; !- [J]
Output:Meter,Heating:EnergyTransfer:Zone:L1-101-SALESAISLE8 THERMAL ZONE,hourly; !- [J]
Output:Meter:Cumulative,Heating:EnergyTransfer:Zone:L1-101-SALESAISLE8 THERMAL ZONE,hourly; !- [J]
Output:Meter,Heating:EnergyTransfer:Zone:L1-101-SALESAISLE9 THERMAL ZONE,hourly; !- [J]
Output:Meter:Cumulative,Heating:EnergyTransfer:Zone:L1-101-SALESAISLE9 THERMAL ZONE,hourly; !- [J]
Output:Meter,Heating:EnergyTransfer:Zone:L1-101-SALESAISLEBULK THERMAL ZONE,hourly; !- [J]
Output:Meter:Cumulative,Heating:EnergyTransfer:Zone:L1-101-SALESAISLEBULK THERMAL ZONE,hourly; !- [J]
Output:Meter,Heating:EnergyTransfer:Zone:L1-101-SALESCIRCULATION1 THERMAL ZONE,hourly; !- [J]
Output:Meter:Cumulative,Heating:EnergyTransfer:Zone:L1-101-SALESCIRCULATION1 THERMAL ZONE,hourly; !- [J]
Output:Meter,Heating:EnergyTransfer:Zone:L1-101-SALESCIRCULATION10 THERMAL ZONE,hourly; !- [J]
Output:Meter:Cumulative,Heating:EnergyTransfer:Zone:L1-101-SALESCIRCULATION10 THERMAL ZONE,hourly; !- [J]
Output:Meter,Heating:EnergyTransfer:Zone:L1-101-SALESCIRCULATION2 THERMAL ZONE,hourly; !- [J]
Output:Meter:Cumulative,Heating:EnergyTransfer:Zone:L1-101-SALESCIRCULATION2 THERMAL ZONE,hourly; !- [J]
Output:Meter,Heating:EnergyTransfer:Zone:L1-101-SALESCIRCULATION3 THERMAL ZONE,hourly; !- [J]
Output:Meter:Cumulative,Heating:EnergyTransfer:Zone:L1-101-SALESCIRCULATION3 THERMAL ZONE,hourly; !- [J]
Output:Meter,Heating:EnergyTransfer:Zone:L1-101-SALESCIRCULATION4 THERMAL ZONE,hourly; !- [J]
Output:Meter:Cumulative,Heating:EnergyTransfer:Zone:L1-101-SALESCIRCULATION4 THERMAL ZONE,hourly; !- [J]
Output:Meter,Heating:EnergyTransfer:Zone:L1-101-SALESCIRCULATION5 THERMAL ZONE,hourly; !- [J]
Output:Meter:Cumulative,Heating:EnergyTransfer:Zone:L1-101-SALESCIRCULATION5 THERMAL ZONE,hourly; !- [J]
Output:Meter,Heating:EnergyTransfer:Zone:L1-101-SALESCIRCULATION6 THERMAL ZONE,hourly; !- [J]
Output:Meter:Cumulative,Heating:EnergyTransfer:Zone:L1-101-SALESCIRCULATION6 THERMAL ZONE,hourly; !- [J]
Output:Meter,Heating:EnergyTransfer:Zone:L1-101-SALESCIRCULATION7 THERMAL ZONE,hourly; !- [J]
Output:Meter:Cumulative,Heating:EnergyTransfer:Zone:L1-101-SALESCIRCULATION7 THERMAL ZONE,hourly; !- [J]
Output:Meter,Heating:EnergyTransfer:Zone:L1-101-SALESCIRCULATION8 THERMAL ZONE,hourly; !- [J]
Output:Meter:Cumulative,Heating:EnergyTransfer:Zone:L1-101-SALESCIRCULATION8 THERMAL ZONE,hourly; !- [J]
Output:Meter,Heating:EnergyTransfer:Zone:L1-101-SALESCIRCULATION9 THERMAL ZONE,hourly; !- [J]
Output:Meter:Cumulative,Heating:EnergyTransfer:Zone:L1-101-SALESCIRCULATION9 THERMAL ZONE,hourly; !- [J]
Output:Meter,Heating:EnergyTransfer:Zone:L1-101-SALESCIRCULATIONMEATSEAFOOD THERMAL ZONE,hourly; !- [J]
Output:Meter:Cumulative,Heating:EnergyTransfer:Zone:L1-101-SALESCIRCULATIONMEATSEAFOOD THERMAL ZONE,hourly; !- [J]
Output:Meter,Heating:EnergyTransfer:Zone:L1-101-SALESREFRIGERATIONAISLE1 THERMAL ZONE,hourly; !- [J]
Output:Meter:Cumulative,Heating:EnergyTransfer:Zone:L1-101-SALESREFRIGERATIONAISLE1 THERMAL ZONE,hourly; !- [J]
Output:Meter,Heating:EnergyTransfer:Zone:L1-101-SALESREFRIGERATIONAISLE2 THERMAL ZONE,hourly; !- [J]
Output:Meter:Cumulative,Heating:EnergyTransfer:Zone:L1-101-SALESREFRIGERATIONAISLE2 THERMAL ZONE,hourly; !- [J]
Output:Meter,Heating:EnergyTransfer:Zone:L1-101-SALESREFRIGERATIONAISLE3 THERMAL ZONE,hourly; !- [J]
Output:Meter:Cumulative,Heating:EnergyTransfer:Zone:L1-101-SALESREFRIGERATIONAISLE3 THERMAL ZONE,hourly; !- [J]
Output:Meter,Heating:EnergyTransfer:Zone:L1-101-SALESREFRIGERATIONAISLE4 THERMAL ZONE,hourly; !- [J]
Output:Meter:Cumulative,Heating:EnergyTransfer:Zone:L1-101-SALESREFRIGERATIONAISLE4 THERMAL ZONE,hourly; !- [J]
Output:Meter,Heating:EnergyTransfer:Zone:L1-101-SALESREFRIGERATIONAISLE5 THERMAL ZONE,hourly; !- [J]
Output:Meter:Cumulative,Heating:EnergyTransfer:Zone:L1-101-SALESREFRIGERATIONAISLE5 THERMAL ZONE,hourly; !- [J]
Output:Meter,Heating:EnergyTransfer:Zone:L1-101-SALESREFRIGERATIONAISLE6 THERMAL ZONE,hourly; !- [J]
Output:Meter:Cumulative,Heating:EnergyTransfer:Zone:L1-101-SALESREFRIGERATIONAISLE6 THERMAL ZONE,hourly; !- [J]
Output:Meter,Heating:EnergyTransfer:Zone:L1-101-SALESREFRIGERATIONAISLE7 THERMAL ZONE,hourly; !- [J]
Output:Meter:Cumulative,Heating:EnergyTransfer:Zone:L1-101-SALESREFRIGERATIONAISLE7 THERMAL ZONE,hourly; !- [J]
Output:Meter,Heating:EnergyTransfer:Zone:L1-101-SALESREFRIGERATIONENDCAP1 THERMAL ZONE,hourly; !- [J]
Output:Meter:Cumulative,Heating:EnergyTransfer:Zone:L1-101-SALESREFRIGERATIONENDCAP1 THERMAL ZONE,hourly; !- [J]
Output:Meter,Heating:EnergyTransfer:Zone:L1-101-SALESREFRIGERATIONENDCAP2 THERMAL ZONE,hourly; !- [J]
Output:Meter:Cumulative,Heating:EnergyTransfer:Zone:L1-101-SALESREFRIGERATIONENDCAP2 THERMAL ZONE,hourly; !- [J]
Output:Meter,Heating:EnergyTransfer:Zone:L1-101-SALESREFRIGERATIONENDCAP3 THERMAL ZONE,hourly; !- [J]
Output:Meter:Cumulative,Heating:EnergyTransfer:Zone:L1-101-SALESREFRIGERATIONENDCAP3 THERMAL ZONE,hourly; !- [J]
Output:Meter,Heating:EnergyTransfer:Zone:L1-101-SALESREFRIGERATIONREACHINBEER THERMAL ZONE,hourly; !- [J]
Output:Meter:Cumulative,Heating:EnergyTransfer:Zone:L1-101-SALESREFRIGERATIONREACHINBEER THERMAL ZONE,hourly; !- [J]
Output:Meter,Heating:EnergyTransfer:Zone:L1-101-SALESREFRIGERATIONREACHINBEVERAGES THERMAL ZONE,hourly; !- [J]
Output:Meter:Cumulative,Heating:EnergyTransfer:Zone:L1-101-SALESREFRIGERATIONREACHINBEVERAGES THERMAL ZONE,hourly; !- [J]
Output:Meter,Heating:EnergyTransfer:Zone:L1-101-SALESREFRIGERATIONREACHINCHEES THERMAL ZONE,hourly; !- [J]
Output:Meter:Cumulative,Heating:EnergyTransfer:Zone:L1-101-SALESREFRIGERATIONREACHINCHEES THERMAL ZONE,hourly; !- [J]
Output:Meter,Heating:EnergyTransfer:Zone:L1-101-SALESREFRIGERATIONREACHINDAIRY1 THERMAL ZONE,hourly; !- [J]
Output:Meter:Cumulative,Heating:EnergyTransfer:Zone:L1-101-SALESREFRIGERATIONREACHINDAIRY1 THERMAL ZONE,hourly; !- [J]
Output:Meter,Heating:EnergyTransfer:Zone:L1-101-SALESREFRIGERATIONREACHINDAIRY2 THERMAL ZONE,hourly; !- [J]
Output:Meter:Cumulative,Heating:EnergyTransfer:Zone:L1-101-SALESREFRIGERATIONREACHINDAIRY2 THERMAL ZONE,hourly; !- [J]
Output:Meter,Heating:EnergyTransfer:Zone:L1-101-SALESREFRIGERATIONREACHINDAIRY3 THERMAL ZONE,hourly; !- [J]
Output:Meter:Cumulative,Heating:EnergyTransfer:Zone:L1-101-SALESREFRIGERATIONREACHINDAIRY3 THERMAL ZONE,hourly; !- [J]
Output:Meter,Heating:EnergyTransfer:Zone:L1-101-SALESREFRIGERATIONREACHINMEATSUBSTITUTES THERMAL ZONE,hourly; !- [J]
[...]
Output:Meter:Cumulative,InteriorLights:Electricity:Zone:M-153-CASHROOM THERMAL ZONE,hourly; !- [J]
Output:Meter,InteriorLights:Electricity:Zone:M-154-EXGOFFICE THERMAL ZONE,hourly; !- [J]
Output:Meter:Cumulative,InteriorLights:Electricity:Zone:M-154-EXGOFFICE THERMAL ZONE,hourly; !- [J]
Output:Meter,InteriorLights:Electricity:Zone:M-155-EXGOFFICE THERMAL ZONE,hourly; !- [J]
Output:Meter:Cumulative,InteriorLights:Electricity:Zone:M-155-EXGOFFICE THERMAL ZONE,hourly; !- [J]
Output:Meter,InteriorLights:Electricity:Zone:M-156-STLOFFICE THERMAL ZONE,hourly; !- [J]
Output:Meter:Cumulative,InteriorLights:Electricity:Zone:M-156-STLOFFICE THERMAL ZONE,hourly; !- [J]
Output:Meter,InteriorLights:Electricity:Zone:M-158-BREAKROOM THERMAL ZONE,hourly; !- [J]
Output:Meter:Cumulative,InteriorLights:Electricity:Zone:M-158-BREAKROOM THERMAL ZONE,hourly; !- [J]
Output:Meter,InteriorLights:Electricity:Zone:M-159-EXGVEST THERMAL ZONE,hourly; !- [J]
Output:Meter:Cumulative,InteriorLights:Electricity:Zone:M-159-EXGVEST THERMAL ZONE,hourly; !- [J]
Output:Meter,InteriorLights:Electricity:Zone:M-161-MEN THERMAL ZONE,hourly; !- [J]
Output:Meter:Cumulative,InteriorLights:Electricity:Zone:M-161-MEN THERMAL ZONE,hourly; !- [J]
Output:Meter,InteriorLights:Electricity:Zone:M-162-PREPROOM THERMAL ZONE,hourly; !- [J]
Output:Meter:Cumulative,InteriorLights:Electricity:Zone:M-162-PREPROOM THERMAL ZONE,hourly; !- [J]
Output:Meter,InteriorLights:Electricity:Zone:M-163-MEATPREP THERMAL ZONE,hourly; !- [J]
Output:Meter:Cumulative,InteriorLights:Electricity:Zone:M-163-MEATPREP THERMAL ZONE,hourly; !- [J]
Output:Meter,InteriorLights:Electricity:Zone:M-164-MEATCOOLER THERMAL ZONE,hourly; !- [J]
Output:Meter:Cumulative,InteriorLights:Electricity:Zone:M-164-MEATCOOLER THERMAL ZONE,hourly; !- [J]
Output:Meter,InteriorLights:Electricity:Zone:M-201-EXGSTORAGE THERMAL ZONE,hourly; !- [J]
Output:Meter:Cumulative,InteriorLights:Electricity:Zone:M-201-EXGSTORAGE THERMAL ZONE,hourly; !- [J]
Output:Meter,InteriorLights:Electricity:Zone:M-BAKERYFREEZER THERMAL ZONE,hourly; !- [J]
Output:Meter:Cumulative,InteriorLights:Electricity:Zone:M-BAKERYFREEZER THERMAL ZONE,hourly; !- [J]
Output:Meter,InteriorLights:Electricity:Zone:M-EXGWOMEN THERMAL ZONE,hourly; !- [J]
Output:Meter:Cumulative,InteriorLights:Electricity:Zone:M-EXGWOMEN THERMAL ZONE,hourly; !- [J]
Output:Meter,Meat & Seafood:InteriorEquipment:Electricity,hourly; !- [J]
Output:Meter:Cumulative,Meat & Seafood:InteriorEquipment:Electricity,hourly; !- [J]
Output:Meter,Meat & Seafood:InteriorLights:Electricity,hourly; !- [J]
Output:Meter:Cumulative,Meat & Seafood:InteriorLights:Electricity,hourly; !- [J]
Output:Meter,Meat Cooler:InteriorLights:Electricity,hourly; !- [J]
Output:Meter:Cumulative,Meat Cooler:InteriorLights:Electricity,hourly; !- [J]
Output:Meter,Meat Prep:InteriorEquipment:Electricity,hourly; !- [J]
Output:Meter:Cumulative,Meat Prep:InteriorEquipment:Electricity,hourly; !- [J]
Output:Meter,Meat Prep:InteriorLights:Electricity,hourly; !- [J]
Output:Meter:Cumulative,Meat Prep:InteriorLights:Electricity,hourly; !- [J]
Output:Meter,MediumTempRefrig:Refrigeration:Electricity,hourly; !- [J]
Output:Meter:Cumulative,MediumTempRefrig:Refrigeration:Electricity,hourly; !- [J]
Output:Meter,Prepared Foods BOH:InteriorEquipment:Electricity,hourly; !- [J]
Output:Meter:Cumulative,Prepared Foods BOH:InteriorEquipment:Electricity,hourly; !- [J]
Output:Meter,Prepared Foods BOH:InteriorLights:Electricity,hourly; !- [J]
Output:Meter:Cumulative,Prepared Foods BOH:InteriorLights:Electricity,hourly; !- [J]
Output:Meter,Prepared Foods:InteriorEquipment:Electricity,hourly; !- [J]
Output:Meter:Cumulative,Prepared Foods:InteriorEquipment:Electricity,hourly; !- [J]
Output:Meter,Prepared Foods:InteriorLights:Electricity,hourly; !- [J]
Output:Meter:Cumulative,Prepared Foods:InteriorLights:Electricity,hourly; !- [J]
Output:Meter,Produce Cooler:InteriorLights:Electricity,hourly; !- [J]
Output:Meter:Cumulative,Produce Cooler:InteriorLights:Electricity,hourly; !- [J]
Output:Meter,Produce Prep:InteriorEquipment:Electricity,hourly; !- [J]
Output:Meter:Cumulative,Produce Prep:InteriorEquipment:Electricity,hourly; !- [J]
Output:Meter,Produce Prep:InteriorLights:Electricity,hourly; !- [J]
Output:Meter:Cumulative,Produce Prep:InteriorLights:Electricity,hourly; !- [J]
Output:Meter,Produce:InteriorLights:Electricity,hourly; !- [J]
Output:Meter:Cumulative,Produce:InteriorLights:Electricity,hourly; !- [J]
Output:Meter,Receiving Corridor:InteriorLights:Electricity,hourly; !- [J]
Output:Meter:Cumulative,Receiving Corridor:InteriorLights:Electricity,hourly; !- [J]
Output:Meter,Receiving Office:InteriorLights:Electricity,hourly; !- [J]
Output:Meter:Cumulative,Receiving Office:InteriorLights:Electricity,hourly; !- [J]
Output:Meter,Recieving:InteriorEquipment:Electricity,hourly; !- [J]
Output:Meter:Cumulative,Recieving:InteriorEquipment:Electricity,hourly; !- [J]
Output:Meter,Recieving:InteriorLights:Electricity,hourly; !- [J]
Output:Meter:Cumulative,Recieving:InteriorLights:Electricity,hourly; !- [J]
Output:Meter,Refrig Reach Prepared:InteriorLights:Electricity,hourly; !- [J]
Output:Meter:Cumulative,Refrig Reach Prepared:InteriorLights:Electricity,hourly; !- [J]
Output:Meter,RefrigEquip Room:InteriorLights:Electricity,hourly; !- [J]
Output:Meter:Cumulative,RefrigEquip Room:InteriorLights:Electricity,hourly; !- [J]
Output:Meter,Refrigeration:Electricity,hourly; !- [J]
Output:Meter:Cumulative,Refrigeration:Electricity,hourly; !- [J]
Output:Meter,Refrigeration:Electricity:Zone:L1-101-SALESAISLE1 THERMAL ZONE,hourly; !- [J]
Output:Meter:Cumulative,Refrigeration:Electricity:Zone:L1-101-SALESAISLE1 THERMAL ZONE,hourly; !- [J]
Output:Meter,Refrigeration:Electricity:Zone:L1-101-SALESAISLE4 THERMAL ZONE,hourly; !- [J]
Output:Meter:Cumulative,Refrigeration:Electricity:Zone:L1-101-SALESAISLE4 THERMAL ZONE,hourly; !- [J]
Output:Meter,Refrigeration:Electricity:Zone:L1-101-SALESCIRCULATION10 THERMAL ZONE,hourly; !- [J]
Output:Meter:Cumulative,Refrigeration:Electricity:Zone:L1-101-SALESCIRCULATION10 THERMAL ZONE,hourly; !- [J]
Output:Meter,Refrigeration:Electricity:Zone:L1-101-SALESCIRCULATIONMEATSEAFOOD THERMAL ZONE,hourly; !- [J]
Output:Meter:Cumulative,Refrigeration:Electricity:Zone:L1-101-SALESCIRCULATIONMEATSEAFOOD THERMAL ZONE,hourly; !- [J]
Output:Meter,Refrigeration:Electricity:Zone:L1-101-SALESREFRIGERATIONAISLE1 THERMAL ZONE,hourly; !- [J]
Output:Meter:Cumulative,Refrigeration:Electricity:Zone:L1-101-SALESREFRIGERATIONAISLE1 THERMAL ZONE,hourly; !- [J]
Output:Meter,Refrigeration:Electricity:Zone:L1-101-SALESREFRIGERATIONAISLE2 THERMAL ZONE,hourly; !- [J]
Output:Meter:Cumulative,Refrigeration:Electricity:Zone:L1-101-SALESREFRIGERATIONAISLE2 THERMAL ZONE,hourly; !- [J]
Output:Meter,Refrigeration:Electricity:Zone:L1-101-SALESREFRIGERATIONAISLE3 THERMAL ZONE,hourly; !- [J]
Output:Meter:Cumulative,Refrigeration:Electricity:Zone:L1-101-SALESREFRIGERATIONAISLE3 THERMAL ZONE,hourly; !- [J]
Output:Meter,Refrigeration:Electricity:Zone:L1-101-SALESREFRIGERATIONAISLE4 THERMAL ZONE,hourly; !- [J]
Output:Meter:Cumulative,Refrigeration:Electricity:Zone:L1-101-SALESREFRIGERATIONAISLE4 THERMAL ZONE,hourly; !- [J]
Output:Meter,Refrigeration:Electricity:Zone:L1-101-SALESREFRIGERATIONAISLE5 THERMAL ZONE,hourly; !- [J]
Output:Meter:Cumulative,Refrigeration:Electricity:Zone:L1-101-SALESREFRIGERATIONAISLE5 THERMAL ZONE,hourly; !- [J]
Output:Meter,Refrigeration:Electricity:Zone:L1-101-SALESREFRIGERATIONAISLE6 THERMAL ZONE,hourly; !- [J]
Output:Meter:Cumulative,Refrigeration:Electricity:Zone:L1-101-SALESREFRIGERATIONAISLE6 THERMAL ZONE,hourly; !- [J]
Output:Meter,Refrigeration:Electricity:Zone:L1-101-SALESREFRIGERATIONAISLE7 THERMAL ZONE,hourly; !- [J]
Output:Meter:Cumulative,Refrigeration:Electricity:Zone:L1-101-SALESREFRIGERATIONAISLE7 THERMAL ZONE,hourly; !- [J]
Output:Meter,Refrigeration:Electricity:Zone:L1-101-SALESREFRIGERATIONREACHINBEER THERMAL ZONE,hourly; !- [J]
Output:Meter:Cumulative,Refrigeration:Electricity:Zone:L1-101-SALESREFRIGERATIONREACHINBEER THERMAL ZONE,hourly; !- [J]
Output:Meter,Refrigeration:Electricity:Zone:L1-101-SALESREFRIGERATIONREACHINBEVERAGES THERMAL ZONE,hourly; !- [J]
Output:Meter:Cumulative,Refrigeration:Electricity:Zone:L1-101-SALESREFRIGERATIONREACHINBEVERAGES THERMAL ZONE,hourly; !- [J]
Output:Meter,Refrigeration:Electricity:Zone:L1-101-SALESREFRIGERATIONREACHINCHEES THERMAL ZONE,hourly; !- [J]
Output:Meter:Cumulative,Refrigeration:Electricity:Zone:L1-101-SALESREFRIGERATIONREACHINCHEES THERMAL ZONE,hourly; !- [J]
Output:Meter,Refrigeration:Electricity:Zone:L1-101-SALESREFRIGERATIONREACHINDAIRY1 THERMAL ZONE,hourly; !- [J]
Output:Meter:Cumulative,Refrigeration:Electricity:Zone:L1-101-SALESREFRIGERATIONREACHINDAIRY1 THERMAL ZONE,hourly; !- [J]
Output:Meter,Refrigeration:Electricity:Zone:L1-101-SALESREFRIGERATIONREACHINDAIRY2 THERMAL ZONE,hourly; !- [J]
Output:Meter:Cumulative,Refrigeration:Electricity:Zone:L1-101-SALESREFRIGERATIONREACHINDAIRY2 THERMAL ZONE,hourly; !- [J]
Output:Meter,Refrigeration:Electricity:Zone:L1-101-SALESREFRIGERATIONREACHINDAIRY3 THERMAL ZONE,hourly; !- [J]
Output:Meter:Cumulative,Refrigeration:Electricity:Zone:L1-101-SALESREFRIGERATIONREACHINDAIRY3 THERMAL ZONE,hourly; !- [J]
Output:Meter,Refrigeration:Electricity:Zone:L1-101-SALESREFRIGERATIONREACHINMEATSUBSTITUTES THERMAL ZONE,hourly; !- [J]
Output:Meter:Cumulative,Refrigeration:Electricity:Zone:L1-101-SALESREFRIGERATIONREACHINMEATSUBSTITUTES THERMAL ZONE,hourly; !- [J]
Output:Meter,Refrigeration:Electricity:Zone:L1-101-SALESREFRIGERATIONREACHINPREPARED THERMAL ZONE,hourly; !- [J]
Output:Meter:Cumulative,Refrigeration:Electricity:Zone:L1-101-SALESREFRIGERATIONREACHINPREPARED THERMAL ZONE,hourly; !- [J]
Output:Meter,Refrigeration:Electricity:Zone:L1-104-PRODUCECOOLERS1 THERMAL ZONE,hourly; !- [J]
Output:Meter:Cumulative,Refrigeration:Electricity:Zone:L1-104-PRODUCECOOLERS1 THERMAL ZONE,hourly; !- [J]
Output:Meter,Refrigeration:Electricity:Zone:L1-104-PRODUCECOOLERS2 THERMAL ZONE,hourly; !- [J]
Output:Meter:Cumulative,Refrigeration:Electricity:Zone:L1-104-PRODUCECOOLERS2 THERMAL ZONE,hourly; !- [J]
Output:Meter,Refrigeration:Electricity:Zone:L1-104-PRODUCECOOLERS3 THERMAL ZONE,hourly; !- [J]
Output:Meter:Cumulative,Refrigeration:Electricity:Zone:L1-104-PRODUCECOOLERS3 THERMAL ZONE,hourly; !- [J]
Output:Meter,Refrigeration:Electricity:Zone:L1-108-PRODUCECOOLER THERMAL ZONE,hourly; !- [J]
Output:Meter:Cumulative,Refrigeration:Electricity:Zone:L1-108-PRODUCECOOLER THERMAL ZONE,hourly; !- [J]
Output:Meter,Refrigeration:Electricity:Zone:L1-110-PRODUCEPREP THERMAL ZONE,hourly; !- [J]
Output:Meter:Cumulative,Refrigeration:Electricity:Zone:L1-110-PRODUCEPREP THERMAL ZONE,hourly; !- [J]
Output:Meter,Refrigeration:Electricity:Zone:L1-111-GROCERYFREEZER THERMAL ZONE,hourly; !- [J]
Output:Meter:Cumulative,Refrigeration:Electricity:Zone:L1-111-GROCERYFREEZER THERMAL ZONE,hourly; !- [J]
Output:Meter,Refrigeration:Electricity:Zone:L1-112-DAIRYCOOLER THERMAL ZONE,hourly; !- [J]
Output:Meter:Cumulative,Refrigeration:Electricity:Zone:L1-112-DAIRYCOOLER THERMAL ZONE,hourly; !- [J]
Output:Meter,Refrigeration:Electricity:Zone:L1-115-MEATSEAFOODCOOLER THERMAL ZONE,hourly; !- [J]
Output:Meter:Cumulative,Refrigeration:Electricity:Zone:L1-115-MEATSEAFOODCOOLER THERMAL ZONE,hourly; !- [J]
Output:Meter,Refrigeration:Electricity:Zone:L1-119-DELICOOLER THERMAL ZONE,hourly; !- [J]
Output:Meter:Cumulative,Refrigeration:Electricity:Zone:L1-119-DELICOOLER THERMAL ZONE,hourly; !- [J]
Output:Meter,Refrigeration:Electricity:Zone:L1-124-SPECIALTYSERVICE THERMAL ZONE,hourly; !- [J]
Output:Meter:Cumulative,Refrigeration:Electricity:Zone:L1-124-SPECIALTYSERVICE THERMAL ZONE,hourly; !- [J]
Output:Meter,Refrigeration:Electricity:Zone:L1-125-PREPAREDFOODS1 THERMAL ZONE,hourly; !- [J]
Output:Meter:Cumulative,Refrigeration:Electricity:Zone:L1-125-PREPAREDFOODS1 THERMAL ZONE,hourly; !- [J]
Output:Meter,Refrigeration:EnergyTransfer,hourly; !- [J]
Output:Meter:Cumulative,Refrigeration:EnergyTransfer,hourly; !- [J]
Output:Meter,Refrigeration:EnergyTransfer:Zone:L1-101-SALESAISLE1 THERMAL ZONE,hourly; !- [J]
Output:Meter:Cumulative,Refrigeration:EnergyTransfer:Zone:L1-101-SALESAISLE1 THERMAL ZONE,hourly; !- [J]
Output:Meter,Refrigeration:EnergyTransfer:Zone:L1-101-SALESAISLE4 THERMAL ZONE,hourly; !- [J]
Output:Meter:Cumulative,Refrigeration:EnergyTransfer:Zone:L1-101-SALESAISLE4 THERMAL ZONE,hourly; !- [J]
Output:Meter,Refrigeration:EnergyTransfer:Zone:L1-101-SALESCIRCULATION10 THERMAL ZONE,hourly; !- [J]
Output:Meter:Cumulative,Refrigeration:EnergyTransfer:Zone:L1-101-SALESCIRCULATION10 THERMAL ZONE,hourly; !- [J]
Output:Meter,Refrigeration:EnergyTransfer:Zone:L1-101-SALESCIRCULATIONMEATSEAFOOD THERMAL ZONE,hourly; !- [J]
Output:Meter:Cumulative,Refrigeration:EnergyTransfer:Zone:L1-101-SALESCIRCULATIONMEATSEAFOOD THERMAL ZONE,hourly; !- [J]
Output:Meter,Refrigeration:EnergyTransfer:Zone:L1-101-SALESREFRIGERATIONAISLE1 THERMAL ZONE,hourly; !- [J]
Output:Meter:Cumulative,Refrigeration:EnergyTransfer:Zone:L1-101-SALESREFRIGERATIONAISLE1 THERMAL ZONE,hourly; !- [J]
Output:Meter,Refrigeration:EnergyTransfer:Zone:L1-101-SALESREFRIGERATIONAISLE2 THERMAL ZONE,hourly; !- [J]
Output:Meter:Cumulative,Refrigeration:EnergyTransfer:Zone:L1-101-SALESREFRIGERATIONAISLE2 THERMAL ZONE,hourly; !- [J]
Output:Meter,Refrigeration:EnergyTransfer:Zone:L1-101-SALESREFRIGERATIONAISLE3 THERMAL ZONE,hourly; !- [J]
Output:Meter:Cumulative,Refrigeration:EnergyTransfer:Zone:L1-101-SALESREFRIGERATIONAISLE3 THERMAL ZONE,hourly; !- [J]
Output:Meter,Refrigeration:EnergyTransfer:Zone:L1-101-SALESREFRIGERATIONAISLE4 THERMAL ZONE,hourly; !- [J]
Output:Meter:Cumulative,Refrigeration:EnergyTransfer:Zone:L1-101-SALESREFRIGERATIONAISLE4 THERMAL ZONE,hourly; !- [J]
Output:Meter,Refrigeration:EnergyTransfer:Zone:L1-101-SALESREFRIGERATIONAISLE5 THERMAL ZONE,hourly; !- [J]
Output:Meter:Cumulative,Refrigeration:EnergyTransfer:Zone:L1-101-SALESREFRIGERATIONAISLE5 THERMAL ZONE,hourly; !- [J]
Output:Meter,Refrigeration:EnergyTransfer:Zone:L1-101-SALESREFRIGERATIONAISLE6 THERMAL ZONE,hourly; !- [J]
Output:Meter:Cumulative,Refrigeration:EnergyTransfer:Zone:L1-101-SALESREFRIGERATIONAISLE6 THERMAL ZONE,hourly; !- [J]
Output:Meter,Refrigeration:EnergyTransfer:Zone:L1-101-SALESREFRIGERATIONAISLE7 THERMAL ZONE,hourly; !- [J]
Output:Meter:Cumulative,Refrigeration:EnergyTransfer:Zone:L1-101-SALESREFRIGERATIONAISLE7 THERMAL ZONE,hourly; !- [J]
Output:Meter,Refrigeration:EnergyTransfer:Zone:L1-101-SALESREFRIGERATIONREACHINBEER THERMAL ZONE,hourly; !- [J]
Output:Meter:Cumulative,Refrigeration:EnergyTransfer:Zone:L1-101-SALESREFRIGERATIONREACHINBEER THERMAL ZONE,hourly; !- [J]
Output:Meter,Refrigeration:EnergyTransfer:Zone:L1-101-SALESREFRIGERATIONREACHINBEVERAGES THERMAL ZONE,hourly; !- [J]
Output:Meter:Cumulative,Refrigeration:EnergyTransfer:Zone:L1-101-SALESREFRIGERATIONREACHINBEVERAGES THERMAL ZONE,hourly; !- [J]
Output:Meter,Refrigeration:EnergyTransfer:Zone:L1-101-SALESREFRIGERATIONREACHINCHEES THERMAL ZONE,hourly; !- [J]
Output:Meter:Cumulative,Refrigeration:EnergyTransfer:Zone:L1-101-SALESREFRIGERATIONREACHINCHEES THERMAL ZONE,hourly; !- [J]
Output:Meter,Refrigeration:EnergyTransfer:Zone:L1-101-SALESREFRIGERATIONREACHINDAIRY1 THERMAL ZONE,hourly; !- [J]
Output:Meter:Cumulative,Refrigeration:EnergyTransfer:Zone:L1-101-SALESREFRIGERATIONREACHINDAIRY1 THERMAL ZONE,hourly; !- [J]
Output:Meter,Refrigeration:EnergyTransfer:Zone:L1-101-SALESREFRIGERATIONREACHINDAIRY2 THERMAL ZONE,hourly; !- [J]
Output:Meter:Cumulative,Refrigeration:EnergyTransfer:Zone:L1-101-SALESREFRIGERATIONREACHINDAIRY2 THERMAL ZONE,hourly; !- [J]
Output:Meter,Refrigeration:EnergyTransfer:Zone:L1-101-SALESREFRIGERATIONREACHINDAIRY3 THERMAL ZONE,hourly; !- [J]
Output:Meter:Cumulative,Refrigeration:EnergyTransfer:Zone:L1-101-SALESREFRIGERATIONREACHINDAIRY3 THERMAL ZONE,hourly; !- [J]
Output:Meter,Refrigeration:EnergyTransfer:Zone:L1-101-SALESREFRIGERATIONREACHINMEATSUBSTITUTES THERMAL ZONE,hourly; !- [J]
Output:Meter:Cumulative,Refrigeration:EnergyTransfer:Zone:L1-101-SALESREFRIGERATIONREACHINMEATSUBSTITUTES THERMAL ZONE,hourly; !- [J]
Output:Meter,Refrigeration:EnergyTransfer:Zone:L1-101-SALESREFRIGERATIONREACHINPREPARED THERMAL ZONE,hourly; !- [J]
Output:Meter:Cumulative,Refrigeration:EnergyTransfer:Zone:L1-101-SALESREFRIGERATIONREACHINPREPARED THERMAL ZONE,hourly; !- [J]
Output:Meter,Refrigeration:EnergyTransfer:Zone:L1-104-PRODUCECOOLERS1 THERMAL ZONE,hourly; !- [J]
Output:Meter:Cumulative,Refrigeration:EnergyTransfer:Zone:L1-104-PRODUCECOOLERS1 THERMAL ZONE,hourly; !- [J]
Output:Meter,Refrigeration:EnergyTransfer:Zone:L1-104-PRODUCECOOLERS2 THERMAL ZONE,hourly; !- [J]
Output:Meter:Cumulative,Refrigeration:EnergyTransfer:Zone:L1-104-PRODUCECOOLERS2 THERMAL ZONE,hourly; !- [J]
Output:Meter,Refrigeration:EnergyTransfer:Zone:L1-104-PRODUCECOOLERS3 THERMAL ZONE,hourly; !- [J]
Output:Meter:Cumulative,Refrigeration:EnergyTransfer:Zone:L1-104-PRODUCECOOLERS3 THERMAL ZONE,hourly; !- [J]
Output:Meter,Refrigeration:EnergyTransfer:Zone:L1-108-PRODUCECOOLER THERMAL ZONE,hourly; !- [J]
Output:Meter:Cumulative,Refrigeration:EnergyTransfer:Zone:L1-108-PRODUCECOOLER THERMAL ZONE,hourly; !- [J]
Output:Meter,Refrigeration:EnergyTransfer:Zone:L1-110-PRODUCEPREP THERMAL ZONE,hourly; !- [J]
Output:Meter:Cumulative,Refrigeration:EnergyTransfer:Zone:L1-110-PRODUCEPREP THERMAL ZONE,hourly; !- [J]
Output:Meter,Refrigeration:EnergyTransfer:Zone:L1-111-GROCERYFREEZER THERMAL ZONE,hourly; !- [J]
Output:Meter:Cumulative,Refrigeration:EnergyTransfer:Zone:L1-111-GROCERYFREEZER THERMAL ZONE,hourly; !- [J]
Output:Meter,Refrigeration:EnergyTransfer:Zone:L1-112-DAIRYCOOLER THERMAL ZONE,hourly; !- [J]
Output:Meter:Cumulative,Refrigeration:EnergyTransfer:Zone:L1-112-DAIRYCOOLER THERMAL ZONE,hourly; !- [J]
Output:Meter,Refrigeration:EnergyTransfer:Zone:L1-115-MEATSEAFOODCOOLER THERMAL ZONE,hourly; !- [J]
Output:Meter:Cumulative,Refrigeration:EnergyTransfer:Zone:L1-115-MEATSEAFOODCOOLER THERMAL ZONE,hourly; !- [J]
Output:Meter,Refrigeration:EnergyTransfer:Zone:L1-119-DELICOOLER THERMAL ZONE,hourly; !- [J]
Output:Meter:Cumulative,Refrigeration:EnergyTransfer:Zone:L1-119-DELICOOLER THERMAL ZONE,hourly; !- [J]
Output:Meter,Refrigeration:EnergyTransfer:Zone:L1-124-SPECIALTYSERVICE THERMAL ZONE,hourly; !- [J]
Output:Meter:Cumulative,Refrigeration:EnergyTransfer:Zone:L1-124-SPECIALTYSERVICE THERMAL ZONE,hourly; !- [J]
Output:Meter,Refrigeration:EnergyTransfer:Zone:L1-125-PREPAREDFOODS1 THERMAL ZONE,hourly; !- [J]
Output:Meter:Cumulative,Refrigeration:EnergyTransfer:Zone:L1-125-PREPAREDFOODS1 THERMAL ZONE,hourly; !- [J]
Output:Meter,Restrooms:InteriorLights:Electricity,hourly; !- [J]
Output:Meter:Cumulative,Restrooms:InteriorLights:Electricity,hourly; !- [J]
Output:Meter,Sales:InteriorEquipment:Electricity,hourly; !- [J]
Output:Meter:Cumulative,Sales:InteriorEquipment:Electricity,hourly; !- [J]
Output:Meter,Sales:InteriorLights:Electricity,hourly; !- [J]
Output:Meter:Cumulative,Sales:InteriorLights:Electricity,hourly; !- [J]
Output:Meter,Seafood Surface:InteriorLights:Electricity,hourly; !- [J]
Output:Meter:Cumulative,Seafood Surface:InteriorLights:Electricity,hourly; !- [J]
Output:Meter,Specialty Foods:InteriorEquipment:Electricity,hourly; !- [J]
Output:Meter:Cumulative,Specialty Foods:InteriorEquipment:Electricity,hourly; !- [J]
Output:Meter,Specialty Foods:InteriorLights:Electricity,hourly; !- [J]
Output:Meter:Cumulative,Specialty Foods:InteriorLights:Electricity,hourly; !- [J]
Output:Meter,Staff Computers:InteriorEquipment:Electricity,hourly; !- [J]
Output:Meter:Cumulative,Staff Computers:InteriorEquipment:Electricity,hourly; !- [J]
Output:Meter,Stairwell:InteriorLights:Electricity,hourly; !- [J]
Output:Meter:Cumulative,Stairwell:InteriorLights:Electricity,hourly; !- [J]
Output:Meter,Storage:InteriorLights:Electricity,hourly; !- [J]
Output:Meter:Cumulative,Storage:InteriorLights:Electricity,hourly; !- [J]
