Program Version,EnergyPlus, Version 8.6.0-198c6a3cff, YMD=2017.03.20 16:07
! This file shows details about the branches, nodes, and other
! elements of the flow connections.
! This file is intended for use in "debugging" potential problems
! that may also be detected by the program, but may be more easily
! identified by "eye".
! This file is also intended to support software which draws a
! schematic diagram of the HVAC system.
! ===============================================================
! #Nodes,<Number of Unique Nodes>
 #Nodes,283
! <Node>,<NodeNumber>,<Node Name>,<Node Fluid Type>,<# Times Node Referenced After Definition>
 Node,1,L1S1 CHECKOUT INLET NODE,Air,4
 Node,2,NODE 3,Air,2
 Node,3,NODE 6,Air,3
 Node,4,L1S1 LOADING INLET NODE,Air,4
 Node,5,NODE 32,Air,2
 Node,6,NODE 5,Air,3
 Node,7,NODE 11,Air,2
 Node,8,L1S1 PREPARED FOODS INLET NODE,Air,3
 Node,9,L1S1 PREPAREDFOODSPREP INLET NODE,Air,3
 Node,10,NODE 13,Air,2
 Node,11,L1S1 PRODUCE INLET ZONE,Air,3
 Node,12,L1S1 SALESAISLE 1 INLET NODE,Air,3
 Node,13,L1S1 SALES NORTH INLET NODE,Air,3
 Node,14,L1S1 SALESSOUTH INLET NODE,Air,3
 Node,15,NODE 21,Air,2
 Node,16,L1S1 SPECIALTYSERVICE INLET NODE,Air,3
 Node,17,NODE 23,Air,2
 Node,18,NODE 1,Air,2
 Node,19,NODE 10,Air,3
 Node,20,NODE 9,Air,3
 Node,21,M-153 CASHROOM INLET NODE,Air,3
 Node,22,M-154 EXGOFFICE INLET NODE,Air,4
 Node,23,M-155 EXGOFFICE INLET NODE,Air,3
 Node,24,M-156 STLOFFICE INLET NODE,Air,3
 Node,25,M-157 EXGOFFICE INLET NODE,Air,3
 Node,26,M-158 BREAKROOM INLET NODE,Air,3
 Node,27,NODE 25,Air,2
 Node,28,M-162 PREPROOM INLET NODE,Air,3
 Node,29,M-163 MEATPREP INLET NODE,Air,3
 Node,30,NODE 8,Air,3
 Node,31,NODE 7,Air,3
 Node,32,NODE 27,Air,2
 Node,33,BOH HEATING SETPOINT NODE,Air,8
 Node,34,BOH POST-SETPOINT NODE,Air,3
 Node,35,PACU EAST SETPOINT NODE,Air,10
 Node,36,PACU EAST POST-SETPOINT NODE,Air,3
 Node,37,PACU WEST SETPOINT NODE,Air,10
 Node,38,PACU WEST POST SETPOINT NODE,Air,3
 Node,39,BOH POST-DEMAND NODE 2,Air,3
 Node,40,BOH PRE-FURNACE NODE,Air,5
 Node,41,BOH PRE-FAN NODE,Air,7
 Node,42,PACU EAST POST DEMAND NODE 2,Air,3
 Node,43,PACU EAST PRE-COIL NODE,Air,6
 Node,44,PACU EAST PREHEAT NODE,Air,6
 Node,45,PACU EAST PRE-FAN NODE,Air,8
 Node,46,PACU WEST POST DEMAND NODE 2,Air,3
 Node,47,PACU WEST PRE COIL NODE,Air,6
 Node,48,PACU PRE-HEAT NODE,Air,6
 Node,49,PACU WEST PRE-FAN NODE,Air,8
 Node,50,{38762942-7D7E-4CAC-9DDD-1F779D226BEF},Air,1
 Node,51,L1S1 CHECKOUT OUTLET NODE,Air,1
 Node,52,{03A1B42A-0430-42FB-95D3-3830E098BF7C},Air,0
 Node,53,L1S1-COFFEE THERMAL ZONE RETURN AIR NODE,Air,0
 Node,54,{103B6735-7422-43AC-A256-26DB2F146437},Air,1
 Node,55,L1S1 LOADING OUTLET NODE,Air,1
 Node,56,{34504FC6-ADBB-4B71-904A-3E5D6CDC9FC6},Air,0
 Node,57,L1S1-MEN THERMAL ZONE RETURN AIR NODE,Air,0
 Node,58,{EE66A13F-DC31-4D07-8CD8-52CA47EACBBF},Air,0
 Node,59,L1S1 PREPARED FOODS OUTLET NODE,Air,1
 Node,60,{A03D2D02-CDA0-4DE9-848A-47ED9DD92E72},Air,0
 Node,61,L1S1 PREPAREDFOODSPREP OUTLET NODE,Air,1
 Node,62,{746F60BC-0CC2-49DB-BE72-3FADDB846BC0},Air,0
 Node,63,L1S1 PRODUCE OUTLET ZONE,Air,1
 Node,64,{CCD771EC-C56F-408F-8328-C0D533B75FCC},Air,0
 Node,65,L1S1 SALESAISLE1 OUTLET NODE,Air,1
 Node,66,{30312C58-5756-4294-9857-7ADBDBBAA85E},Air,0
 Node,67,L1S1 SALESNORTH OUTLET NODE,Air,1
 Node,68,{30BF6580-D1E9-4895-9C6B-179A8DE8FA66},Air,0
 Node,69,L1S1 SALESSOUTH OUTLET NODE,Air,1
 Node,70,{64E59CC1-4073-485F-8501-58B4FCE57E98},Air,0
 Node,71,L1S1-SEAFOODSURFACE THERMAL ZONE RETURN AIR NODE,Air,0
 Node,72,{0BA0FB4F-9F38-4FB5-8708-7A6A6C6601A8},Air,0
 Node,73,L1S1 SPECIALTYSERVICE OUTLET NODE,Air,1
 Node,74,{F326C772-8563-40B7-B950-3677468BD5BD},Air,0
 Node,75,L1S1-WOMEN THERMAL ZONE RETURN AIR NODE,Air,0
 Node,76,{1E98158C-95EF-4456-B770-79A2825B98B8},Air,0
 Node,77,M-151-STAIRS1 THERMAL ZONE RETURN AIR NODE,Air,0
 Node,78,{92C237F9-DC6D-423B-A8CF-3BB67899C64A},Air,0
 Node,79,M-152-MDF THERMAL ZONE RETURN AIR NODE,Air,0
 Node,80,{6FA32808-F056-41CE-B191-95D5293D1573},Air,0
 Node,81,M-153 CASHROOM OUTLET NODE,Air,1
 Node,82,{6574FF8C-9A3F-461D-8217-E43FAFAAEC77},Air,1
 Node,83,M-154 EXGOFFICE OUTLET NODE,Air,1
 Node,84,{203908AB-4C7D-4A35-B1B5-A39F2F2989E0},Air,0
 Node,85,M-155 EXGOFFICE OUTLET NODE,Air,1
 Node,86,{D0FA65B8-410E-4218-BEF0-E73C7B0DE80A},Air,0
 Node,87,M-156 STLOFFICE OUTLET NODE,Air,1
 Node,88,{51A1FAFF-C270-4643-BD90-1A7A4568523C},Air,0
 Node,89,M-157 EXGOFFICE OUTLET NODE,Air,1
 Node,90,{FAF17BD5-30F5-4D51-B095-BD258AE2E122},Air,0
 Node,91,M-158 BREAKROOM OUTLET NODE,Air,1
 Node,92,{1066CCF3-E4F8-4A2E-85DF-006E6E53FFE0},Air,0
 Node,93,M-161-MEN THERMAL ZONE RETURN AIR NODE,Air,0
 Node,94,{636BB1E6-F18B-4A1B-BA83-A556697F8985},Air,0
 Node,95,M-162 PREPROOM OUTLET NODE,Air,1
 Node,96,{18AEAD9E-BB7E-41F9-8C40-B3C65D31B974},Air,0
 Node,97,M-163 MEATPREP OUTLET NODE,Air,1
 Node,98,{D75308AE-A849-4DC3-9A33-AED2BB3AB141},Air,0
 Node,99,M-201-EXGSTORAGE THERMAL ZONE RETURN AIR NODE,Air,0
 Node,100,{EA11E51F-2D8A-4831-AD02-FAAF9D4F4CC2},Air,0
 Node,101,M-EXGWOMEN THERMAL ZONE RETURN AIR NODE,Air,0
 Node,102,L1-101-DAIRY1 AIR NODE,Air,0
 Node,103,L1-101-DAIRY1 RETURN AIR NODE,Air,0
 Node,104,L1-101-DAIRY1 INLET NODE,Air,2
 Node,105,L1-101-DAIRY1 EXHAUST NODE,Air,2
 Node,106,L1-101-DAIRY2 AIR NODE,Air,0
 Node,107,L1-101-DAIRY2 RETURN AIR NODE,Air,0
 Node,108,L1-101-DAIRY2 INLET NODE,Air,2
 Node,109,L1-101-DAIRY2 EXHAUST NODE,Air,2
 Node,110,L1-101-MEATSEAFOOD AIR NODE,Air,0
 Node,111,L1-101-MEATSEAFOOD RETURN AIR NODE,Air,0
 Node,112,L1-101-MEATSEAFOOD INLET NODE,Air,2
 Node,113,L1-101-MEATSEAFOOD EXHAUST NODE,Air,2
 Node,114,L1-111-GROCERYFREEZER AIR NODE,Air,0
 Node,115,L1-111-GROCERYFREEZER RETURN AIR NODE,Air,0
 Node,116,L1-111-GROCERYFREEZER INLET NODE,Air,2
 Node,117,L1-111-GROCERYFREEZER EXHAUST NODE,Air,2
 Node,118,L1-110-PRODUCEPREP AIR NODE,Air,0
 Node,119,L1-110-PRODUCEPREP RETURN AIR NODE,Air,0
 Node,120,L1-110-PRODUCEPREP INLET NODE,Air,2
 Node,121,L1-110-PRODUCEPREP EXHAUST NODE,Air,2
 Node,122,L1-101-SALESAISLE1 AIR NODE,Air,0
 Node,123,L1-101-SALESAISLE1 RETURN AIR NODE,Air,0
 Node,124,L1-101-SALESAISLE1 INLET NODE,Air,2
 Node,125,L1-101-SALESAISLE1 EXHAUST NODE,Air,2
 Node,126,L1-101-SALESAISLE2 AIR NODE,Air,0
 Node,127,L1-101-SALESAISLE2 RETURN AIR NODE,Air,0
 Node,128,L1-101-SALESAISLE2 INLET NODE,Air,2
 Node,129,L1-101-SALESAISLE2 EXHAUST NODE,Air,2
 Node,130,L1-101-SALESAISLE6 AIR NODE,Air,0
 Node,131,L1-101-SALESAISLE6 RETURN AIR NODE,Air,0
 Node,132,L1-101-SALESAISLE6 INLET NODE,Air,2
 Node,133,L1-101-SALESAISLE6 EXHAUST NODE,Air,2
 Node,134,L1-101-SALESAISLE3 AIR NODE,Air,0
 Node,135,L1-101-SALESAISLE3 RETURN AIR NODE,Air,0
 Node,136,L1-101-SALESAISLE3 INLET NODE,Air,2
 Node,137,L1-101-SALESAISLE3 EXHAUST NODE,Air,2
 Node,138,L1-101-SALESAISLE4 AIR NODE,Air,0
 Node,139,L1-101-SALESAISLE4 RETURN AIR NODE,Air,0
 Node,140,L1-101-SALESAISLE4 INLET NODE,Air,2
 Node,141,L1-101-SALESAISLE4 EXHAUST NODE,Air,2
 Node,142,L1-101-SALESAISLE5 AIR NODE,Air,0
 Node,143,L1-101-SALESAISLE5 RETURN AIR NODE,Air,0
 Node,144,L1-101-SALESAISLE5 INLET NODE,Air,2
 Node,145,L1-101-SALESAISLE5 EXHAUST NODE,Air,2
 Node,146,L1-101-SALESAISLE7 AIR NODE,Air,0
 Node,147,L1-101-SALESAISLE7 RETURN AIR NODE,Air,0
 Node,148,L1-101-SALESAISLE7 INLET NODE,Air,2
 Node,149,L1-101-SALESAISLE7 EXHAUST NODE,Air,2
 Node,150,L1-115-MEATSEAFOOD AIR NODE,Air,0
 Node,151,L1-115-MEATSEAFOOD RETURN AIR NODE,Air,0
 Node,152,L1-115-MEATSEAFOOD INLET NODE,Air,2
 Node,153,L1-115-MEATSEAFOOD EXHAUST NODE,Air,2
 Node,154,L1-112-DAIRYCOOLER AIR NODE,Air,0
 Node,155,L1-112-DAIRYCOOLER RETURN AIR NODE,Air,0
 Node,156,L1-112-DAIRYCOOLER INLET NODE,Air,2
 Node,157,L1-112-DAIRYCOOLER EXHAUST NODE,Air,2
 Node,158,L1-101-SALESREACHINDAIRY3 AIR NODE,Air,0
 Node,159,L1-101-SALESREACHINDAIRY3 RETURN AIR NODE,Air,0
 Node,160,L1-101-SALESREACHINDAIRY3 INLET NODE,Air,2
 Node,161,L1-101-SALESREACHINDAIRY3 EXHAUST NODE,Air,2
 Node,162,L1-101-SALESAISLE1 NOTREFRIG AIR NODE,Air,0
 Node,163,L1-101-SALESAISLE1 NOTREFRIG RETURN AIR NODE,Air,0
 Node,164,L1-101-SALESAISLE1 NOTREFRIG INLET NODE,Air,2
 Node,165,L1-101-SALESAISLE1 NOTREFRIG EXHAUST NODE,Air,2
 Node,166,L1-101-SALESREACHINMEATSUB AIR NODE,Air,0
 Node,167,L1-101-SALESREACHINMEATSUB RETURN AIR NODE,Air,0
 Node,168,L1-101-SALESREACHINMEATSUB INLET NODE,Air,2
 Node,169,L1-101-SALESREACHINMEATSUB EXHAUST NODE,Air,2
 Node,170,L1-108-PRODUCECOOLER AIR NODE,Air,0
 Node,171,L1-108-PRODUCECOOLER RETURN AIR NODE,Air,0
 Node,172,L1-108-PRODUCECOOLER INLET NODE,Air,2
 Node,173,L1-108-PRODUCECOOLER EXHAUST NODE,Air,2
 Node,174,L1-104-PRODUCECOOLERS1 AIR NODE,Air,0
 Node,175,L1-104-PRODUCECOOLERS1 RETURN AIR NODE,Air,0
 Node,176,L1-104-PRODUCECOOLERS1 INLET NODE,Air,2
 Node,177,L1-104-PRODUCECOOLERS1 EXHAUST NODE,Air,2
 Node,178,L1-104-PRODUCECOOLERS2 AIR NODE,Air,0
 Node,179,L1-104-PRODUCECOOLERS2 RETURN AIR NODE,Air,0
 Node,180,L1-104-PRODUCECOOLERS2 INLET NODE,Air,2
 Node,181,L1-104-PRODUCECOOLERS2 EXHAUST NODE,Air,2
 Node,182,L1-104-PRODUCECOOLERS3 AIR NODE,Air,0
 Node,183,L1-104-PRODUCECOOLERS3 RETURN AIR NODE,Air,0
 Node,184,L1-104-PRODUCECOOLERS3 INLET NODE,Air,2
 Node,185,L1-104-PRODUCECOOLERS3 EXHAUST NODE,Air,2
 Node,186,L1-101-SALESAISLE4 NOREFRIG AIR NODE,Air,0
 Node,187,L1-101-SALESAISLE4 NOREFRIG RETURN AIR NODE,Air,0
 Node,188,L1-101-SALESAISLE4 NOREFRIG INLET NODE,Air,2
 Node,189,L1-101-SALESAISLE4 NOREFRIG EXHAUST NODE,Air,2
 Node,190,L1-125-PREPAREDFOODS1 AIR NODE,Air,0
 Node,191,L1-125-PREPAREDFOODS1 RETURN AIR NODE,Air,0
 Node,192,L1-125-PREPAREDFOODS1 INLET NODE,Air,2
 Node,193,L1-125-PREPAREDFOODS1 EXHAUST NODE,Air,2
 Node,194,L1-101-SALESCIRCULATION10 AIR NODE,Air,0
 Node,195,L1-101-SALESCIRCULATION10 RETURN AIR NODE,Air,0
 Node,196,L1-101-SALESCIRCULATION10 INLET NODE,Air,2
 Node,197,L1-101-SALESCIRCULATION10 EXHAUST NODE,Air,2
 Node,198,L1-124-SPECIALTYSERVICE AIR NODE,Air,0
 Node,199,L1-124-SPECIALTYSERVICE RETURN AIR NODE,Air,0
 Node,200,L1-124-SPECIALTYSERVICE INLET NODE,Air,2
 Node,201,L1-124-SPECIALTYSERVICE EXHAUST NODE,Air,2
 Node,202,L1-101-SALESREACHINBEVERAGES AIR NODE,Air,0
 Node,203,L1-101-SALESREACHINBEVERAGES RETURN AIR NODE,Air,0
 Node,204,L1-101-SALESREACHINBEVERAGES INLET NODE,Air,2
 Node,205,L1-101-SALESREACHINBEVERAGES EXHAUST NODE,Air,2
 Node,206,L1-101-SALESREACHINPREPARED AIR NODE,Air,0
 Node,207,L1-101-SALESREACHINPREPARED RETURN AIR NODE,Air,0
 Node,208,L1-101-SALESREACHINPREPARED INLET NODE,Air,2
 Node,209,L1-101-SALESREACHINPREPARED EXHAUST NODE,Air,2
 Node,210,L1-101-SALESREACHINBEER AIR NODE,Air,0
 Node,211,L1-101-SALESREACHINBEER RETURN AIR NODE,Air,0
 Node,212,L1-101-SALESREACHINBEER INLET NODE,Air,2
 Node,213,L1-101-SALESREACHINBEER EXHAUST NODE,Air,2
 Node,214,L1-101-SALESREACHINCHEES AIR NODE,Air,0
 Node,215,L1-101-SALESREACHINCHEES RETURN AIR NODE,Air,0
 Node,216,L1-101-SALESREACHINCHEES INLET NODE,Air,2
 Node,217,L1-101-SALESREACHINCHEES EXHAUST NODE,Air,2
 Node,218,L1-119-DELICOOLER AIR NODE,Air,0
 Node,219,L1-119-DELICOOLER RETURN AIR NODE,Air,0
 Node,220,L1-119-DELICOOLER INLET NODE,Air,2
 Node,221,L1-119-DELICOOLER EXHAUST NODE,Air,2
 Node,222,M-164-MEATCOOLER AIR NODE,Air,0
 Node,223,M-164-MEATCOOLER RETURN AIR NODE,Air,0
 Node,224,M-164-MEATCOOLER INLET NODE,Air,2
 Node,225,M-164-MEATCOOLER EXHAUST NODE,Air,2
 Node,226,BOH POST-DEMAND NODE,Air,2
 Node,227,PACU EAST POST DEMAND NODE,Air,2
 Node,228,PACU WEST POST DEMAND NODE,Air,2
 Node,229,CONDENSEROANODE,Air,1
 Node,230,M-152 MDF ROOM DAC OA NODE,Air,1
 Node,231,BOH OA INLET NODE,Air,2
 Node,232,PACU EAST OH INLET NODE,Air,2
 Node,233,PACU WEST OH INLET NODE,Air,2
 Node,234,L1S1 LOADING UNIT HEATER GAS FAN OUTLET NODE,Air,1
 Node,235,M-152 MDF ROOM DAC HEATING COIL OUTLET NODE,Air,1
 Node,236,M-152 MDF ROOM DAC FAN OUTLET NODE,Air,1
 Node,237,M201 EXGSTORAGE UNIT HEATER GAS FAN OUTLET NODE,Air,1
 Node,238,L1-101-DAIRY1 FAN OUTLET NODE,Air,1
 Node,239,L1-101-DAIRY2 FAN OUTLET NODE,Air,1
 Node,240,L1-101-MEATSEAFOOD FAN OUTLET NODE,Air,1
 Node,241,L1-111-GROCERYFREEZER FAN OUTLET NODE,Air,1
 Node,242,L1-110-PRODUCEPREP FAN OUTLET NODE,Air,1
 Node,243,L1-101-SALESAISLE1 FAN OUTLET NODE,Air,1
 Node,244,L1-101-SALESAISLE2 FAN OUTLET NODE,Air,1
 Node,245,L1-101-SALESAISLE3 FAN OUTLET NODE,Air,1
 Node,246,L1-101-SALESAISLE4 FAN OUTLET NODE,Air,1
 Node,247,L1-101-SALESAISLE5 FAN OUTLET NODE,Air,1
 Node,248,L1-101-SALESAISLE6 FAN OUTLET NODE,Air,1
 Node,249,L1-101-SALESAISLE7 FAN OUTLET NODE,Air,1
 Node,250,L1-115-MEATSEAFOOD FAN OUTLET NODE,Air,1
 Node,251,L1-112-DAIRYCOOLER FAN OUTLET NODE,Air,1
 Node,252,L1-101-SALESREACHINDAIRY3 FAN OUTLET NODE,Air,1
 Node,253,L1-101-SALESAISLE1 NOTREFRIG FAN OUTLET NODE,Air,1
 Node,254,L1-101-SALESREACHINMEATSUB FAN OUTLET NODE,Air,1
 Node,255,L1-108-PRODUCECOOLER FAN OUTLET NODE,Air,1
 Node,256,L1-104-PRODUCECOOLERS3 FAN OUTLET NODE,Air,1
 Node,257,L1-104-PRODUCECOOLERS2 FAN OUTLET NODE,Air,1
 Node,258,L1-104-PRODUCECOOLERS1 FAN OUTLET NODE,Air,1
 Node,259,L1-101-SALESAISLE4 NOREFRIG FAN OUTLET NODE,Air,1
 Node,260,L1-125-PREPAREDFOODS1 FAN OUTLET NODE,Air,1
 Node,261,L1-124-SPECIALTYSERVICE FAN OUTLET NODE,Air,1
 Node,262,L1-101-SALESCIRCULATION10 FAN OUTLET NODE,Air,1
 Node,263,L1-101-SALESREACHINBEVERAGES FAN OUTLET NODE,Air,1
 Node,264,L1-101-SALESREACHINPREPARED FAN OUTLET NODE,Air,1
 Node,265,L1-101-SALESREACHINBEER FAN OUTLET NODE,Air,1
 Node,266,L1-101-SALESREACHINCHEES FAN OUTLET NODE,Air,1
 Node,267,L1-119-DELICOOLER FAN OUTLET NODE,Air,1
 Node,268,M-164-MEATCOOLER FAN OUTLET NODE,Air,1
 Node,269,NODE 4,Air,0
 Node,270,NODE 33,Air,0
 Node,271,NODE 12,Air,0
 Node,272,NODE 20,Air,0
 Node,273,NODE 22,Air,0
 Node,274,NODE 24,Air,0
 Node,275,NODE 2,Air,0
 Node,276,NODE 26,Air,0
 Node,277,NODE 28,Air,0
 Node,278,M-152 MDF ROOM DAC MIXED AIR NODE,Air,1
 Node,279,M-152 MDF ROOM DAC RELIEF AIR NODE,Air,0
 Node,280,BOH OA OUTLET NODE,Air,1
 Node,281,PACU EAST OA OUTLET NODE,Air,1
 Node,282,PACU WEST OH OUTLET NODE,Air,1
 Node,283,M-152 MDF ROOM DAC COOLING COIL OUTLET NODE,Air,1
! ===============================================================
! Suspicious nodes have 0 references.  It is normal for some nodes, however.
! Listing nodes with 0 references (culled from previous list):
! <Suspicious Node>,<NodeNumber>,<Node Name>,<Node Fluid Type>,<# Times Node Referenced After Definition>
 Suspicious Node,52,{03A1B42A-0430-42FB-95D3-3830E098BF7C},Air,0
 Suspicious Node,53,L1S1-COFFEE THERMAL ZONE RETURN AIR NODE,Air,0
 Suspicious Node,56,{34504FC6-ADBB-4B71-904A-3E5D6CDC9FC6},Air,0
 Suspicious Node,57,L1S1-MEN THERMAL ZONE RETURN AIR NODE,Air,0
 Suspicious Node,58,{EE66A13F-DC31-4D07-8CD8-52CA47EACBBF},Air,0
 Suspicious Node,60,{A03D2D02-CDA0-4DE9-848A-47ED9DD92E72},Air,0
 Suspicious Node,62,{746F60BC-0CC2-49DB-BE72-3FADDB846BC0},Air,0
 Suspicious Node,64,{CCD771EC-C56F-408F-8328-C0D533B75FCC},Air,0
 Suspicious Node,66,{30312C58-5756-4294-9857-7ADBDBBAA85E},Air,0
 Suspicious Node,68,{30BF6580-D1E9-4895-9C6B-179A8DE8FA66},Air,0
 Suspicious Node,70,{64E59CC1-4073-485F-8501-58B4FCE57E98},Air,0
 Suspicious Node,71,L1S1-SEAFOODSURFACE THERMAL ZONE RETURN AIR NODE,Air,0
 Suspicious Node,72,{0BA0FB4F-9F38-4FB5-8708-7A6A6C6601A8},Air,0
 Suspicious Node,74,{F326C772-8563-40B7-B950-3677468BD5BD},Air,0
 Suspicious Node,75,L1S1-WOMEN THERMAL ZONE RETURN AIR NODE,Air,0
 Suspicious Node,76,{1E98158C-95EF-4456-B770-79A2825B98B8},Air,0
 Suspicious Node,77,M-151-STAIRS1 THERMAL ZONE RETURN AIR NODE,Air,0
 Suspicious Node,78,{92C237F9-DC6D-423B-A8CF-3BB67899C64A},Air,0
 Suspicious Node,79,M-152-MDF THERMAL ZONE RETURN AIR NODE,Air,0
 Suspicious Node,80,{6FA32808-F056-41CE-B191-95D5293D1573},Air,0
 Suspicious Node,84,{203908AB-4C7D-4A35-B1B5-A39F2F2989E0},Air,0
 Suspicious Node,86,{D0FA65B8-410E-4218-BEF0-E73C7B0DE80A},Air,0
 Suspicious Node,88,{51A1FAFF-C270-4643-BD90-1A7A4568523C},Air,0
 Suspicious Node,90,{FAF17BD5-30F5-4D51-B095-BD258AE2E122},Air,0
 Suspicious Node,92,{1066CCF3-E4F8-4A2E-85DF-006E6E53FFE0},Air,0
 Suspicious Node,93,M-161-MEN THERMAL ZONE RETURN AIR NODE,Air,0
 Suspicious Node,94,{636BB1E6-F18B-4A1B-BA83-A556697F8985},Air,0
 Suspicious Node,96,{18AEAD9E-BB7E-41F9-8C40-B3C65D31B974},Air,0
 Suspicious Node,98,{D75308AE-A849-4DC3-9A33-AED2BB3AB141},Air,0
 Suspicious Node,99,M-201-EXGSTORAGE THERMAL ZONE RETURN AIR NODE,Air,0
 Suspicious Node,100,{EA11E51F-2D8A-4831-AD02-FAAF9D4F4CC2},Air,0
 Suspicious Node,101,M-EXGWOMEN THERMAL ZONE RETURN AIR NODE,Air,0
 Suspicious Node,102,L1-101-DAIRY1 AIR NODE,Air,0
 Suspicious Node,103,L1-101-DAIRY1 RETURN AIR NODE,Air,0
 Suspicious Node,106,L1-101-DAIRY2 AIR NODE,Air,0
 Suspicious Node,107,L1-101-DAIRY2 RETURN AIR NODE,Air,0
 Suspicious Node,110,L1-101-MEATSEAFOOD AIR NODE,Air,0
 Suspicious Node,111,L1-101-MEATSEAFOOD RETURN AIR NODE,Air,0
 Suspicious Node,114,L1-111-GROCERYFREEZER AIR NODE,Air,0
 Suspicious Node,115,L1-111-GROCERYFREEZER RETURN AIR NODE,Air,0
 Suspicious Node,118,L1-110-PRODUCEPREP AIR NODE,Air,0
 Suspicious Node,119,L1-110-PRODUCEPREP RETURN AIR NODE,Air,0
 Suspicious Node,122,L1-101-SALESAISLE1 AIR NODE,Air,0
 Suspicious Node,123,L1-101-SALESAISLE1 RETURN AIR NODE,Air,0
 Suspicious Node,126,L1-101-SALESAISLE2 AIR NODE,Air,0
 Suspicious Node,127,L1-101-SALESAISLE2 RETURN AIR NODE,Air,0
 Suspicious Node,130,L1-101-SALESAISLE6 AIR NODE,Air,0
 Suspicious Node,131,L1-101-SALESAISLE6 RETURN AIR NODE,Air,0
 Suspicious Node,134,L1-101-SALESAISLE3 AIR NODE,Air,0
 Suspicious Node,135,L1-101-SALESAISLE3 RETURN AIR NODE,Air,0
 Suspicious Node,138,L1-101-SALESAISLE4 AIR NODE,Air,0
 Suspicious Node,139,L1-101-SALESAISLE4 RETURN AIR NODE,Air,0
 Suspicious Node,142,L1-101-SALESAISLE5 AIR NODE,Air,0
 Suspicious Node,143,L1-101-SALESAISLE5 RETURN AIR NODE,Air,0
 Suspicious Node,146,L1-101-SALESAISLE7 AIR NODE,Air,0
 Suspicious Node,147,L1-101-SALESAISLE7 RETURN AIR NODE,Air,0
 Suspicious Node,150,L1-115-MEATSEAFOOD AIR NODE,Air,0
 Suspicious Node,151,L1-115-MEATSEAFOOD RETURN AIR NODE,Air,0
 Suspicious Node,154,L1-112-DAIRYCOOLER AIR NODE,Air,0
 Suspicious Node,155,L1-112-DAIRYCOOLER RETURN AIR NODE,Air,0
 Suspicious Node,158,L1-101-SALESREACHINDAIRY3 AIR NODE,Air,0
 Suspicious Node,159,L1-101-SALESREACHINDAIRY3 RETURN AIR NODE,Air,0
 Suspicious Node,162,L1-101-SALESAISLE1 NOTREFRIG AIR NODE,Air,0
 Suspicious Node,163,L1-101-SALESAISLE1 NOTREFRIG RETURN AIR NODE,Air,0
 Suspicious Node,166,L1-101-SALESREACHINMEATSUB AIR NODE,Air,0
 Suspicious Node,167,L1-101-SALESREACHINMEATSUB RETURN AIR NODE,Air,0
 Suspicious Node,170,L1-108-PRODUCECOOLER AIR NODE,Air,0
 Suspicious Node,171,L1-108-PRODUCECOOLER RETURN AIR NODE,Air,0
 Suspicious Node,174,L1-104-PRODUCECOOLERS1 AIR NODE,Air,0
 Suspicious Node,175,L1-104-PRODUCECOOLERS1 RETURN AIR NODE,Air,0
 Suspicious Node,178,L1-104-PRODUCECOOLERS2 AIR NODE,Air,0
 Suspicious Node,179,L1-104-PRODUCECOOLERS2 RETURN AIR NODE,Air,0
 Suspicious Node,182,L1-104-PRODUCECOOLERS3 AIR NODE,Air,0
 Suspicious Node,183,L1-104-PRODUCECOOLERS3 RETURN AIR NODE,Air,0
 Suspicious Node,186,L1-101-SALESAISLE4 NOREFRIG AIR NODE,Air,0
 Suspicious Node,187,L1-101-SALESAISLE4 NOREFRIG RETURN AIR NODE,Air,0
 Suspicious Node,190,L1-125-PREPAREDFOODS1 AIR NODE,Air,0
 Suspicious Node,191,L1-125-PREPAREDFOODS1 RETURN AIR NODE,Air,0
 Suspicious Node,194,L1-101-SALESCIRCULATION10 AIR NODE,Air,0
 Suspicious Node,195,L1-101-SALESCIRCULATION10 RETURN AIR NODE,Air,0
 Suspicious Node,198,L1-124-SPECIALTYSERVICE AIR NODE,Air,0
 Suspicious Node,199,L1-124-SPECIALTYSERVICE RETURN AIR NODE,Air,0
 Suspicious Node,202,L1-101-SALESREACHINBEVERAGES AIR NODE,Air,0
 Suspicious Node,203,L1-101-SALESREACHINBEVERAGES RETURN AIR NODE,Air,0
 Suspicious Node,206,L1-101-SALESREACHINPREPARED AIR NODE,Air,0
 Suspicious Node,207,L1-101-SALESREACHINPREPARED RETURN AIR NODE,Air,0
 Suspicious Node,210,L1-101-SALESREACHINBEER AIR NODE,Air,0
 Suspicious Node,211,L1-101-SALESREACHINBEER RETURN AIR NODE,Air,0
 Suspicious Node,214,L1-101-SALESREACHINCHEES AIR NODE,Air,0
 Suspicious Node,215,L1-101-SALESREACHINCHEES RETURN AIR NODE,Air,0
 Suspicious Node,218,L1-119-DELICOOLER AIR NODE,Air,0
 Suspicious Node,219,L1-119-DELICOOLER RETURN AIR NODE,Air,0
 Suspicious Node,222,M-164-MEATCOOLER AIR NODE,Air,0
 Suspicious Node,223,M-164-MEATCOOLER RETURN AIR NODE,Air,0
 Suspicious Node,269,NODE 4,Air,0
 Suspicious Node,270,NODE 33,Air,0
 Suspicious Node,271,NODE 12,Air,0
 Suspicious Node,272,NODE 20,Air,0
 Suspicious Node,273,NODE 22,Air,0
 Suspicious Node,274,NODE 24,Air,0
 Suspicious Node,275,NODE 2,Air,0
 Suspicious Node,276,NODE 26,Air,0
 Suspicious Node,277,NODE 28,Air,0
 Suspicious Node,279,M-152 MDF ROOM DAC RELIEF AIR NODE,Air,0
! ===============================================================
! <#Branch Lists>,<Number of Branch Lists>
 #Branch Lists,3
! <Branch List>,<Branch List Count>,<Branch List Name>,<Loop Name>,<Loop Type>,<Number of Branches>
! <Branch>,<Branch Count>,<Branch Name>,<Loop Name>,<Loop Type>,<Branch Inlet Node Name>,<Branch Outlet Node Name>
 Branch List,1,GAS FIRED FURNACE SUPPLY BRANCHES,GAS FIRED FURNACE,Air,1
   Branch,1,GAS FIRED FURNACE MAIN BRANCH,GAS FIRED FURNACE,Air,BOH POST-DEMAND NODE 2,BOH HEATING SETPOINT NODE
 Branch List,2,RTU1 - SALES RIGHT SUPPLY BRANCHES,RTU1 - SALES RIGHT,Air,1
   Branch,1,RTU1 - SALES RIGHT MAIN BRANCH,RTU1 - SALES RIGHT,Air,PACU EAST POST DEMAND NODE 2,PACU EAST SETPOINT NODE
 Branch List,3,RTU2 - SALES LEFT SUPPLY BRANCHES,RTU2 - SALES LEFT,Air,1
   Branch,1,RTU2 - SALES LEFT MAIN BRANCH,RTU2 - SALES LEFT,Air,PACU WEST POST DEMAND NODE 2,PACU WEST SETPOINT NODE
! ===============================================================
! <#Supply Air Paths>,<Number of Supply Air Paths>
 #Supply Air Paths,3
! <Supply Air Path>,<Supply Air Path Count>,<Supply Air Path Name>,<AirLoopHVAC Name>
! <#Components on Supply Air Path>,<Number of Components>
! <Supply Air Path Component>,<Component Count>,<Component Type>,<Component Name>,<AirLoopHVAC Name>
! <#Outlet Nodes on Supply Air Path Component>,<Number of Nodes>
! <Supply Air Path Component Nodes>,<Node Count>,<Component Type>,<Component Name>,<Inlet Node Name>,<Outlet Node Name>,<AirLoopHVAC Name>
 Supply Air Path,1,GAS FIRED FURNACE BOH POST-SETPOINT NODE SUPPLY PATH,GAS FIRED FURNACE
   #Components on Supply Air Path,1
   Supply Air Path Component,1,AIRLOOPHVAC:ZONESPLITTER,AIR LOOP HVAC ZONE SPLITTER 3,GAS FIRED FURNACE
     #Outlet Nodes on Supply Air Path Component,8
     Supply Air Path Component Nodes,1,AIRLOOPHVAC:ZONESPLITTER,AIR LOOP HVAC ZONE SPLITTER 3,BOH POST-SETPOINT NODE,M-163 MEATPREP INLET NODE,GAS FIRED FURNACE
     Supply Air Path Component Nodes,2,AIRLOOPHVAC:ZONESPLITTER,AIR LOOP HVAC ZONE SPLITTER 3,BOH POST-SETPOINT NODE,M-162 PREPROOM INLET NODE,GAS FIRED FURNACE
     Supply Air Path Component Nodes,3,AIRLOOPHVAC:ZONESPLITTER,AIR LOOP HVAC ZONE SPLITTER 3,BOH POST-SETPOINT NODE,M-158 BREAKROOM INLET NODE,GAS FIRED FURNACE
     Supply Air Path Component Nodes,4,AIRLOOPHVAC:ZONESPLITTER,AIR LOOP HVAC ZONE SPLITTER 3,BOH POST-SETPOINT NODE,M-157 EXGOFFICE INLET NODE,GAS FIRED FURNACE
     Supply Air Path Component Nodes,5,AIRLOOPHVAC:ZONESPLITTER,AIR LOOP HVAC ZONE SPLITTER 3,BOH POST-SETPOINT NODE,M-156 STLOFFICE INLET NODE,GAS FIRED FURNACE
     Supply Air Path Component Nodes,6,AIRLOOPHVAC:ZONESPLITTER,AIR LOOP HVAC ZONE SPLITTER 3,BOH POST-SETPOINT NODE,M-155 EXGOFFICE INLET NODE,GAS FIRED FURNACE
     Supply Air Path Component Nodes,7,AIRLOOPHVAC:ZONESPLITTER,AIR LOOP HVAC ZONE SPLITTER 3,BOH POST-SETPOINT NODE,M-154 EXGOFFICE INLET NODE,GAS FIRED FURNACE
     Supply Air Path Component Nodes,8,AIRLOOPHVAC:ZONESPLITTER,AIR LOOP HVAC ZONE SPLITTER 3,BOH POST-SETPOINT NODE,M-153 CASHROOM INLET NODE,GAS FIRED FURNACE
! <#Nodes on Supply Air Path>,<Number of Nodes>
! <Supply Air Path Node>,<Node Type>,<Node Count>,<Node Name>,<AirLoopHVAC Name>
#Nodes on Supply Air Path,9
   Supply Air Path Node,Inlet Node,1,BOH POST-SETPOINT NODE,GAS FIRED FURNACE
   Supply Air Path Node,Outlet Node,2,M-163 MEATPREP INLET NODE,GAS FIRED FURNACE
   Supply Air Path Node,Outlet Node,3,M-162 PREPROOM INLET NODE,GAS FIRED FURNACE
   Supply Air Path Node,Outlet Node,4,M-158 BREAKROOM INLET NODE,GAS FIRED FURNACE
   Supply Air Path Node,Outlet Node,5,M-157 EXGOFFICE INLET NODE,GAS FIRED FURNACE
   Supply Air Path Node,Outlet Node,6,M-156 STLOFFICE INLET NODE,GAS FIRED FURNACE
   Supply Air Path Node,Outlet Node,7,M-155 EXGOFFICE INLET NODE,GAS FIRED FURNACE
   Supply Air Path Node,Outlet Node,8,M-154 EXGOFFICE INLET NODE,GAS FIRED FURNACE
   Supply Air Path Node,Outlet Node,9,M-153 CASHROOM INLET NODE,GAS FIRED FURNACE
 Supply Air Path,2,RTU1 - SALES RIGHT PACU EAST POST-SETPOINT NODE SUPPLY PATH,RTU1 - SALES RIGHT
   #Components on Supply Air Path,1
   Supply Air Path Component,1,AIRLOOPHVAC:ZONESPLITTER,AIR LOOP HVAC ZONE SPLITTER 2,RTU1 - SALES RIGHT
     #Outlet Nodes on Supply Air Path Component,5
     Supply Air Path Component Nodes,1,AIRLOOPHVAC:ZONESPLITTER,AIR LOOP HVAC ZONE SPLITTER 2,PACU EAST POST-SETPOINT NODE,L1S1 PREPARED FOODS INLET NODE,RTU1 - SALES RIGHT
     Supply Air Path Component Nodes,2,AIRLOOPHVAC:ZONESPLITTER,AIR LOOP HVAC ZONE SPLITTER 2,PACU EAST POST-SETPOINT NODE,L1S1 PREPAREDFOODSPREP INLET NODE,RTU1 - SALES RIGHT
     Supply Air Path Component Nodes,3,AIRLOOPHVAC:ZONESPLITTER,AIR LOOP HVAC ZONE SPLITTER 2,PACU EAST POST-SETPOINT NODE,L1S1 SPECIALTYSERVICE INLET NODE,RTU1 - SALES RIGHT
     Supply Air Path Component Nodes,4,AIRLOOPHVAC:ZONESPLITTER,AIR LOOP HVAC ZONE SPLITTER 2,PACU EAST POST-SETPOINT NODE,L1S1 CHECKOUT INLET NODE,RTU1 - SALES RIGHT
     Supply Air Path Component Nodes,5,AIRLOOPHVAC:ZONESPLITTER,AIR LOOP HVAC ZONE SPLITTER 2,PACU EAST POST-SETPOINT NODE,L1S1 SALESSOUTH INLET NODE,RTU1 - SALES RIGHT
! <#Nodes on Supply Air Path>,<Number of Nodes>
! <Supply Air Path Node>,<Node Type>,<Node Count>,<Node Name>,<AirLoopHVAC Name>
#Nodes on Supply Air Path,6
   Supply Air Path Node,Inlet Node,1,PACU EAST POST-SETPOINT NODE,RTU1 - SALES RIGHT
   Supply Air Path Node,Outlet Node,2,L1S1 PREPARED FOODS INLET NODE,RTU1 - SALES RIGHT
   Supply Air Path Node,Outlet Node,3,L1S1 PREPAREDFOODSPREP INLET NODE,RTU1 - SALES RIGHT
   Supply Air Path Node,Outlet Node,4,L1S1 SPECIALTYSERVICE INLET NODE,RTU1 - SALES RIGHT
   Supply Air Path Node,Outlet Node,5,L1S1 CHECKOUT INLET NODE,RTU1 - SALES RIGHT
   Supply Air Path Node,Outlet Node,6,L1S1 SALESSOUTH INLET NODE,RTU1 - SALES RIGHT
 Supply Air Path,3,RTU2 - SALES LEFT PACU WEST POST SETPOINT NODE SUPPLY PATH,RTU2 - SALES LEFT
   #Components on Supply Air Path,1
   Supply Air Path Component,1,AIRLOOPHVAC:ZONESPLITTER,AIR LOOP HVAC ZONE SPLITTER 1,RTU2 - SALES LEFT
     #Outlet Nodes on Supply Air Path Component,4
     Supply Air Path Component Nodes,1,AIRLOOPHVAC:ZONESPLITTER,AIR LOOP HVAC ZONE SPLITTER 1,PACU WEST POST SETPOINT NODE,L1S1 PRODUCE INLET ZONE,RTU2 - SALES LEFT
     Supply Air Path Component Nodes,2,AIRLOOPHVAC:ZONESPLITTER,AIR LOOP HVAC ZONE SPLITTER 1,PACU WEST POST SETPOINT NODE,L1S1 SALESAISLE 1 INLET NODE,RTU2 - SALES LEFT
     Supply Air Path Component Nodes,3,AIRLOOPHVAC:ZONESPLITTER,AIR LOOP HVAC ZONE SPLITTER 1,PACU WEST POST SETPOINT NODE,L1S1 SALES NORTH INLET NODE,RTU2 - SALES LEFT
     Supply Air Path Component Nodes,4,AIRLOOPHVAC:ZONESPLITTER,AIR LOOP HVAC ZONE SPLITTER 1,PACU WEST POST SETPOINT NODE,L1S1 LOADING INLET NODE,RTU2 - SALES LEFT
! <#Nodes on Supply Air Path>,<Number of Nodes>
! <Supply Air Path Node>,<Node Type>,<Node Count>,<Node Name>,<AirLoopHVAC Name>
#Nodes on Supply Air Path,5
   Supply Air Path Node,Inlet Node,1,PACU WEST POST SETPOINT NODE,RTU2 - SALES LEFT
   Supply Air Path Node,Outlet Node,2,L1S1 PRODUCE INLET ZONE,RTU2 - SALES LEFT
   Supply Air Path Node,Outlet Node,3,L1S1 SALESAISLE 1 INLET NODE,RTU2 - SALES LEFT
   Supply Air Path Node,Outlet Node,4,L1S1 SALES NORTH INLET NODE,RTU2 - SALES LEFT
   Supply Air Path Node,Outlet Node,5,L1S1 LOADING INLET NODE,RTU2 - SALES LEFT
! ===============================================================
! <#Return Air Paths>,<Number of Return Air Paths>
 #Return Air Paths,3
! <Return Air Path>,<Return Air Path Count>,<Return Air Path Name>,<AirLoopHVAC Name>
! <#Components on Return Air Path>,<Number of Components>
! <Return Air Path Component>,<Component Count>,<Component Type>,<Component Name>,<AirLoopHVAC Name>
! <#Inlet Nodes on Return Air Path Component>,<Number of Nodes>
! <Return Air Path Component Nodes>,<Node Count>,<Component Type>,<Component Name>,<Inlet Node Name>,<Outlet Node Name>,<AirLoopHVAC Name>
 Return Air Path,1,GAS FIRED FURNACE RETURN PATH,GAS FIRED FURNACE
   #Components on Return Air Path,1
   Return Air Path Component,1,AIRLOOPHVAC:ZONEMIXER,AIR LOOP HVAC ZONE MIXER 3,GAS FIRED FURNACE
     #Inlet Nodes on Return Air Path Component,8
     Return Air Path Component Nodes,1,AIRLOOPHVAC:ZONEMIXER,AIR LOOP HVAC ZONE MIXER 3,M-163 MEATPREP OUTLET NODE,BOH POST-DEMAND NODE,GAS FIRED FURNACE
     Return Air Path Component Nodes,2,AIRLOOPHVAC:ZONEMIXER,AIR LOOP HVAC ZONE MIXER 3,M-162 PREPROOM OUTLET NODE,BOH POST-DEMAND NODE,GAS FIRED FURNACE
     Return Air Path Component Nodes,3,AIRLOOPHVAC:ZONEMIXER,AIR LOOP HVAC ZONE MIXER 3,M-158 BREAKROOM OUTLET NODE,BOH POST-DEMAND NODE,GAS FIRED FURNACE
     Return Air Path Component Nodes,4,AIRLOOPHVAC:ZONEMIXER,AIR LOOP HVAC ZONE MIXER 3,M-157 EXGOFFICE OUTLET NODE,BOH POST-DEMAND NODE,GAS FIRED FURNACE
     Return Air Path Component Nodes,5,AIRLOOPHVAC:ZONEMIXER,AIR LOOP HVAC ZONE MIXER 3,M-156 STLOFFICE OUTLET NODE,BOH POST-DEMAND NODE,GAS FIRED FURNACE
     Return Air Path Component Nodes,6,AIRLOOPHVAC:ZONEMIXER,AIR LOOP HVAC ZONE MIXER 3,M-155 EXGOFFICE OUTLET NODE,BOH POST-DEMAND NODE,GAS FIRED FURNACE
     Return Air Path Component Nodes,7,AIRLOOPHVAC:ZONEMIXER,AIR LOOP HVAC ZONE MIXER 3,M-154 EXGOFFICE OUTLET NODE,BOH POST-DEMAND NODE,GAS FIRED FURNACE
     Return Air Path Component Nodes,8,AIRLOOPHVAC:ZONEMIXER,AIR LOOP HVAC ZONE MIXER 3,M-153 CASHROOM OUTLET NODE,BOH POST-DEMAND NODE,GAS FIRED FURNACE
! <#Nodes on Return Air Path>,<Number of Nodes>
! <Return Air Path Node>,<Node Type>,<Node Count>,<Node Name>,<AirLoopHVAC Name>
   #Nodes on Return Air Path,9
   Return Air Path Node,Outlet Node,1,BOH POST-DEMAND NODE,GAS FIRED FURNACE
   Return Air Path Node,Inlet Node,2,M-163 MEATPREP OUTLET NODE,GAS FIRED FURNACE
   Return Air Path Node,Inlet Node,3,M-162 PREPROOM OUTLET NODE,GAS FIRED FURNACE
   Return Air Path Node,Inlet Node,4,M-158 BREAKROOM OUTLET NODE,GAS FIRED FURNACE
   Return Air Path Node,Inlet Node,5,M-157 EXGOFFICE OUTLET NODE,GAS FIRED FURNACE
   Return Air Path Node,Inlet Node,6,M-156 STLOFFICE OUTLET NODE,GAS FIRED FURNACE
   Return Air Path Node,Inlet Node,7,M-155 EXGOFFICE OUTLET NODE,GAS FIRED FURNACE
   Return Air Path Node,Inlet Node,8,M-154 EXGOFFICE OUTLET NODE,GAS FIRED FURNACE
   Return Air Path Node,Inlet Node,9,M-153 CASHROOM OUTLET NODE,GAS FIRED FURNACE
 Return Air Path,2,RTU1 - SALES RIGHT RETURN PATH,RTU1 - SALES RIGHT
   #Components on Return Air Path,1
   Return Air Path Component,1,AIRLOOPHVAC:ZONEMIXER,AIR LOOP HVAC ZONE MIXER 2,RTU1 - SALES RIGHT
     #Inlet Nodes on Return Air Path Component,5
     Return Air Path Component Nodes,1,AIRLOOPHVAC:ZONEMIXER,AIR LOOP HVAC ZONE MIXER 2,L1S1 PREPARED FOODS OUTLET NODE,PACU EAST POST DEMAND NODE,RTU1 - SALES RIGHT
     Return Air Path Component Nodes,2,AIRLOOPHVAC:ZONEMIXER,AIR LOOP HVAC ZONE MIXER 2,L1S1 PREPAREDFOODSPREP OUTLET NODE,PACU EAST POST DEMAND NODE,RTU1 - SALES RIGHT
     Return Air Path Component Nodes,3,AIRLOOPHVAC:ZONEMIXER,AIR LOOP HVAC ZONE MIXER 2,L1S1 SPECIALTYSERVICE OUTLET NODE,PACU EAST POST DEMAND NODE,RTU1 - SALES RIGHT
     Return Air Path Component Nodes,4,AIRLOOPHVAC:ZONEMIXER,AIR LOOP HVAC ZONE MIXER 2,L1S1 CHECKOUT OUTLET NODE,PACU EAST POST DEMAND NODE,RTU1 - SALES RIGHT
     Return Air Path Component Nodes,5,AIRLOOPHVAC:ZONEMIXER,AIR LOOP HVAC ZONE MIXER 2,L1S1 SALESSOUTH OUTLET NODE,PACU EAST POST DEMAND NODE,RTU1 - SALES RIGHT
! <#Nodes on Return Air Path>,<Number of Nodes>
! <Return Air Path Node>,<Node Type>,<Node Count>,<Node Name>,<AirLoopHVAC Name>
   #Nodes on Return Air Path,6
   Return Air Path Node,Outlet Node,1,PACU EAST POST DEMAND NODE,RTU1 - SALES RIGHT
   Return Air Path Node,Inlet Node,2,L1S1 PREPARED FOODS OUTLET NODE,RTU1 - SALES RIGHT
   Return Air Path Node,Inlet Node,3,L1S1 PREPAREDFOODSPREP OUTLET NODE,RTU1 - SALES RIGHT
   Return Air Path Node,Inlet Node,4,L1S1 SPECIALTYSERVICE OUTLET NODE,RTU1 - SALES RIGHT
   Return Air Path Node,Inlet Node,5,L1S1 CHECKOUT OUTLET NODE,RTU1 - SALES RIGHT
   Return Air Path Node,Inlet Node,6,L1S1 SALESSOUTH OUTLET NODE,RTU1 - SALES RIGHT
 Return Air Path,3,RTU2 - SALES LEFT RETURN PATH,RTU2 - SALES LEFT
   #Components on Return Air Path,1
   Return Air Path Component,1,AIRLOOPHVAC:ZONEMIXER,AIR LOOP HVAC ZONE MIXER 1,RTU2 - SALES LEFT
     #Inlet Nodes on Return Air Path Component,4
     Return Air Path Component Nodes,1,AIRLOOPHVAC:ZONEMIXER,AIR LOOP HVAC ZONE MIXER 1,L1S1 PRODUCE OUTLET ZONE,PACU WEST POST DEMAND NODE,RTU2 - SALES LEFT
     Return Air Path Component Nodes,2,AIRLOOPHVAC:ZONEMIXER,AIR LOOP HVAC ZONE MIXER 1,L1S1 SALESAISLE1 OUTLET NODE,PACU WEST POST DEMAND NODE,RTU2 - SALES LEFT
     Return Air Path Component Nodes,3,AIRLOOPHVAC:ZONEMIXER,AIR LOOP HVAC ZONE MIXER 1,L1S1 SALESNORTH OUTLET NODE,PACU WEST POST DEMAND NODE,RTU2 - SALES LEFT
     Return Air Path Component Nodes,4,AIRLOOPHVAC:ZONEMIXER,AIR LOOP HVAC ZONE MIXER 1,L1S1 LOADING OUTLET NODE,PACU WEST POST DEMAND NODE,RTU2 - SALES LEFT
! <#Nodes on Return Air Path>,<Number of Nodes>
! <Return Air Path Node>,<Node Type>,<Node Count>,<Node Name>,<AirLoopHVAC Name>
   #Nodes on Return Air Path,5
   Return Air Path Node,Outlet Node,1,PACU WEST POST DEMAND NODE,RTU2 - SALES LEFT
   Return Air Path Node,Inlet Node,2,L1S1 PRODUCE OUTLET ZONE,RTU2 - SALES LEFT
   Return Air Path Node,Inlet Node,3,L1S1 SALESAISLE1 OUTLET NODE,RTU2 - SALES LEFT
   Return Air Path Node,Inlet Node,4,L1S1 SALESNORTH OUTLET NODE,RTU2 - SALES LEFT
   Return Air Path Node,Inlet Node,5,L1S1 LOADING OUTLET NODE,RTU2 - SALES LEFT
! ===============================================================
! #Outdoor Air Nodes,<Number of Outdoor Air Nodes>
 #Outdoor Air Nodes,5
! <Outdoor Air Node>,<NodeNumber>,<Node Name>
 Outdoor Air Node,230,M-152 MDF ROOM DAC OA NODE
 Outdoor Air Node,231,BOH OA INLET NODE
 Outdoor Air Node,232,PACU EAST OH INLET NODE
 Outdoor Air Node,233,PACU WEST OH INLET NODE
 Outdoor Air Node,229,CONDENSEROANODE
! ===============================================================
! <#Component Sets>,<Number of Component Sets>
 #Component Sets,87
! <Component Set>,<Component Set Count>,<Parent Object Type>,<Parent Object Name>,<Component Type>,<Component Name>,<Inlet Node ID>,<Outlet Node ID>,<Description>
 Component Set,1,BRANCH,GAS FIRED FURNACE MAIN BRANCH,AIRLOOPHVAC:OUTDOORAIRSYSTEM,AIR LOOP HVAC OUTDOOR AIR SYSTEM 3,BOH POST-DEMAND NODE 2,BOH PRE-FURNACE NODE,Air Nodes
 Component Set,2,BRANCH,GAS FIRED FURNACE MAIN BRANCH,COIL:HEATING:FUEL,COIL HEATING GAS 3,BOH PRE-FURNACE NODE,BOH PRE-FAN NODE,Air Nodes
 Component Set,3,BRANCH,GAS FIRED FURNACE MAIN BRANCH,FAN:CONSTANTVOLUME,OFFICE/BOH SUPPLY FAN,BOH PRE-FAN NODE,BOH HEATING SETPOINT NODE,Air Nodes
 Component Set,4,BRANCH,RTU1 - SALES RIGHT MAIN BRANCH,AIRLOOPHVAC:OUTDOORAIRSYSTEM,AIR LOOP HVAC OUTDOOR AIR SYSTEM 2,PACU EAST POST DEMAND NODE 2,PACU EAST PRE-COIL NODE,Air Nodes
 Component Set,5,BRANCH,RTU1 - SALES RIGHT MAIN BRANCH,COILSYSTEM:COOLING:DX,PACU WEST 1 SPD DX CLG COIL COILSYSTEM,PACU EAST PRE-COIL NODE,PACU EAST PREHEAT NODE,Air Nodes
 Component Set,6,BRANCH,RTU1 - SALES RIGHT MAIN BRANCH,COIL:HEATING:FUEL,PACU EAST COIL HEATING GAS,PACU EAST PREHEAT NODE,PACU EAST PRE-FAN NODE,Air Nodes
 Component Set,7,BRANCH,RTU1 - SALES RIGHT MAIN BRANCH,FAN:CONSTANTVOLUME,PACU EAST FAN CONSTANT VOLUME,PACU EAST PRE-FAN NODE,PACU EAST SETPOINT NODE,Air Nodes
 Component Set,8,BRANCH,RTU2 - SALES LEFT MAIN BRANCH,AIRLOOPHVAC:OUTDOORAIRSYSTEM,AIR LOOP HVAC OUTDOOR AIR SYSTEM 1,PACU WEST POST DEMAND NODE 2,PACU WEST PRE COIL NODE,Air Nodes
 Component Set,9,BRANCH,RTU2 - SALES LEFT MAIN BRANCH,COILSYSTEM:COOLING:DX,PACU EAST 1 SPD DX CLG COIL COILSYSTEM,PACU WEST PRE COIL NODE,PACU PRE-HEAT NODE,Air Nodes
 Component Set,10,BRANCH,RTU2 - SALES LEFT MAIN BRANCH,COIL:HEATING:FUEL,PACU WEST COIL HEATING GAS,PACU PRE-HEAT NODE,PACU WEST PRE-FAN NODE,Air Nodes
 Component Set,11,BRANCH,RTU2 - SALES LEFT MAIN BRANCH,FAN:CONSTANTVOLUME,PACU WEST FAN CONSTANT VOLUME,PACU WEST PRE-FAN NODE,PACU WEST SETPOINT NODE,Air Nodes
 Component Set,12,ZONEHVAC:UNITHEATER,L1S1 LOADING UNIT HEATER GAS,FAN:CONSTANTVOLUME,CV UNIT HEATER FAN,NODE 5,L1S1 LOADING UNIT HEATER GAS FAN OUTLET NODE,Air Nodes
 Component Set,13,ZONEHVAC:PACKAGEDTERMINALHEATPUMP,M-152 MDF ROOM DAC,FAN:CONSTANTVOLUME,PTHP CV FAN,M-152 MDF ROOM DAC HEATING COIL OUTLET NODE,M-152 MDF ROOM DAC FAN OUTLET NODE,Air Nodes
 Component Set,14,ZONEHVAC:UNITHEATER,M201 EXGSTORAGE UNIT HEATER GAS,FAN:CONSTANTVOLUME,CV UNIT HEATER FAN 1,NODE 7,M201 EXGSTORAGE UNIT HEATER GAS FAN OUTLET NODE,Air Nodes
 Component Set,15,ZONEHVAC:UNITHEATER,L1-101-DAIRY1 ZONE HEATER,FAN:CONSTANTVOLUME,L1-101-DAIRY1 FAN,L1-101-DAIRY1 EXHAUST NODE,L1-101-DAIRY1 FAN OUTLET NODE,Air Nodes
 Component Set,16,ZONEHVAC:UNITHEATER,L1-101-DAIRY2 ZONE HEATER,FAN:CONSTANTVOLUME,L1-101-DAIRY2 FAN,L1-101-DAIRY2 EXHAUST NODE,L1-101-DAIRY2 FAN OUTLET NODE,Air Nodes
 Component Set,17,ZONEHVAC:UNITHEATER,L1-101-MEATSEAFOOD ZONE HEATER,FAN:CONSTANTVOLUME,L1-101-MEATSEAFOOD FAN,L1-101-MEATSEAFOOD EXHAUST NODE,L1-101-MEATSEAFOOD FAN OUTLET NODE,Air Nodes
 Component Set,18,ZONEHVAC:UNITHEATER,L1-111-GROCERYFREEZER ZONE HEATER,FAN:CONSTANTVOLUME,L1-111-GROCERYFREEZER FAN,L1-111-GROCERYFREEZER EXHAUST NODE,L1-111-GROCERYFREEZER FAN OUTLET NODE,Air Nodes
 Component Set,19,ZONEHVAC:UNITHEATER,L1-110-PRODUCEPREP ZONE HEATER,FAN:CONSTANTVOLUME,L1-110-PRODUCEPREP FAN,L1-110-PRODUCEPREP EXHAUST NODE,L1-110-PRODUCEPREP FAN OUTLET NODE,Air Nodes
 Component Set,20,ZONEHVAC:UNITHEATER,L1-101-SALESAISLE1 ZONE HEATER,FAN:CONSTANTVOLUME,L1-101-SALESAISLE1 FAN,L1-101-SALESAISLE1 EXHAUST NODE,L1-101-SALESAISLE1 FAN OUTLET NODE,Air Nodes
 Component Set,21,ZONEHVAC:UNITHEATER,L1-101-SALESAISLE2 ZONE HEATER,FAN:CONSTANTVOLUME,L1-101-SALESAISLE2 FAN,L1-101-SALESAISLE2 EXHAUST NODE,L1-101-SALESAISLE2 FAN OUTLET NODE,Air Nodes
 Component Set,22,ZONEHVAC:UNITHEATER,L1-101-SALESAISLE3 ZONE HEATER,FAN:CONSTANTVOLUME,L1-101-SALESAISLE3 FAN,L1-101-SALESAISLE3 EXHAUST NODE,L1-101-SALESAISLE3 FAN OUTLET NODE,Air Nodes
 Component Set,23,ZONEHVAC:UNITHEATER,L1-101-SALESAISLE4 ZONE HEATER,FAN:CONSTANTVOLUME,L1-101-SALESAISLE4 FAN,L1-101-SALESAISLE4 EXHAUST NODE,L1-101-SALESAISLE4 FAN OUTLET NODE,Air Nodes
 Component Set,24,ZONEHVAC:UNITHEATER,L1-101-SALESAISLE5 ZONE HEATER,FAN:CONSTANTVOLUME,L1-101-SALESAISLE5 FAN,L1-101-SALESAISLE5 EXHAUST NODE,L1-101-SALESAISLE5 FAN OUTLET NODE,Air Nodes
 Component Set,25,ZONEHVAC:UNITHEATER,L1-101-SALESAISLE6 ZONE HEATER,FAN:CONSTANTVOLUME,L1-101-SALESAISLE6 FAN,L1-101-SALESAISLE6 EXHAUST NODE,L1-101-SALESAISLE6 FAN OUTLET NODE,Air Nodes
 Component Set,26,ZONEHVAC:UNITHEATER,L1-101-SALESAISLE7 ZONE HEATER,FAN:CONSTANTVOLUME,L1-101-SALESAISLE7 FAN,L1-101-SALESAISLE7 EXHAUST NODE,L1-101-SALESAISLE7 FAN OUTLET NODE,Air Nodes
 Component Set,27,ZONEHVAC:UNITHEATER,L1-115-MEATSEAFOOD ZONE HEATER,FAN:CONSTANTVOLUME,L1-115-MEATSEAFOOD FAN,L1-115-MEATSEAFOOD EXHAUST NODE,L1-115-MEATSEAFOOD FAN OUTLET NODE,Air Nodes
 Component Set,28,ZONEHVAC:UNITHEATER,L1-112-DAIRYCOOLER ZONE HEATER,FAN:CONSTANTVOLUME,L1-112-DAIRYCOOLER FAN,L1-112-DAIRYCOOLER EXHAUST NODE,L1-112-DAIRYCOOLER FAN OUTLET NODE,Air Nodes
 Component Set,29,ZONEHVAC:UNITHEATER,L1-101-SALESREACHINDAIRY3 ZONE HEATER,FAN:CONSTANTVOLUME,L1-101-SALESREACHINDAIRY3 FAN,L1-101-SALESREACHINDAIRY3 EXHAUST NODE,L1-101-SALESREACHINDAIRY3 FAN OUTLET NODE,Air Nodes
 Component Set,30,ZONEHVAC:UNITHEATER,L1-101-SALESAISLE1 NOTREFRIG ZONE HEATER,FAN:CONSTANTVOLUME,L1-101-SALESAISLE1 NOTREFRIG FAN,L1-101-SALESAISLE1 NOTREFRIG EXHAUST NODE,L1-101-SALESAISLE1 NOTREFRIG FAN OUTLET NODE,Air Nodes
 Component Set,31,ZONEHVAC:UNITHEATER,L1-101-SALESREACHINMEATSUB ZONE HEATER,FAN:CONSTANTVOLUME,L1-101-SALESREACHINMEATSUB FAN,L1-101-SALESREACHINMEATSUB EXHAUST NODE,L1-101-SALESREACHINMEATSUB FAN OUTLET NODE,Air Nodes
 Component Set,32,ZONEHVAC:UNITHEATER,L1-108-PRODUCECOOLER ZONE HEATER,FAN:CONSTANTVOLUME,L1-108-PRODUCECOOLER FAN,L1-108-PRODUCECOOLER EXHAUST NODE,L1-108-PRODUCECOOLER FAN OUTLET NODE,Air Nodes
 Component Set,33,ZONEHVAC:UNITHEATER,L1-104-PRODUCECOOLERS3 ZONE HEATER,FAN:CONSTANTVOLUME,L1-104-PRODUCECOOLERS3 FAN,L1-104-PRODUCECOOLERS3 EXHAUST NODE,L1-104-PRODUCECOOLERS3 FAN OUTLET NODE,Air Nodes
 Component Set,34,ZONEHVAC:UNITHEATER,L1-104-PRODUCECOOLERS2 ZONE HEATER,FAN:CONSTANTVOLUME,L1-104-PRODUCECOOLERS2 FAN,L1-104-PRODUCECOOLERS2 EXHAUST NODE,L1-104-PRODUCECOOLERS2 FAN OUTLET NODE,Air Nodes
 Component Set,35,ZONEHVAC:UNITHEATER,L1-104-PRODUCECOOLERS1 ZONE HEATER,FAN:CONSTANTVOLUME,L1-104-PRODUCECOOLERS1 FAN,L1-104-PRODUCECOOLERS1 EXHAUST NODE,L1-104-PRODUCECOOLERS1 FAN OUTLET NODE,Air Nodes
 Component Set,36,ZONEHVAC:UNITHEATER,L1-101-SALESAISLE4 NOREFRIG ZONE HEATER,FAN:CONSTANTVOLUME,L1-101-SALESAISLE4 NOREFRIG FAN,L1-101-SALESAISLE4 NOREFRIG EXHAUST NODE,L1-101-SALESAISLE4 NOREFRIG FAN OUTLET NODE,Air Nodes
 Component Set,37,ZONEHVAC:UNITHEATER,L1-125-PREPAREDFOODS1 ZONE HEATER,FAN:CONSTANTVOLUME,L1-125-PREPAREDFOODS1 FAN,L1-125-PREPAREDFOODS1 EXHAUST NODE,L1-125-PREPAREDFOODS1 FAN OUTLET NODE,Air Nodes
 Component Set,38,ZONEHVAC:UNITHEATER,L1-124-SPECIALTYSERVICE ZONE HEATER,FAN:CONSTANTVOLUME,L1-124-SPECIALTYSERVICE FAN,L1-124-SPECIALTYSERVICE EXHAUST NODE,L1-124-SPECIALTYSERVICE FAN OUTLET NODE,Air Nodes
 Component Set,39,ZONEHVAC:UNITHEATER,L1-101-SALESCIRCULATION10 ZONE HEATER,FAN:CONSTANTVOLUME,L1-101-SALESCIRCULATION10 FAN,L1-101-SALESCIRCULATION10 EXHAUST NODE,L1-101-SALESCIRCULATION10 FAN OUTLET NODE,Air Nodes
 Component Set,40,ZONEHVAC:UNITHEATER,L1-101-SALESREACHINBEVERAGES ZONE HEATER,FAN:CONSTANTVOLUME,L1-101-SALESREACHINBEVERAGES FAN,L1-101-SALESREACHINBEVERAGES EXHAUST NODE,L1-101-SALESREACHINBEVERAGES FAN OUTLET NODE,Air Nodes
 Component Set,41,ZONEHVAC:UNITHEATER,L1-101-SALESREACHINPREPARED ZONE HEATER,FAN:CONSTANTVOLUME,L1-101-SALESREACHINPREPARED FAN,L1-101-SALESREACHINPREPARED EXHAUST NODE,L1-101-SALESREACHINPREPARED FAN OUTLET NODE,Air Nodes
 Component Set,42,ZONEHVAC:UNITHEATER,L1-101-SALESREACHINBEER ZONE HEATER,FAN:CONSTANTVOLUME,L1-101-SALESREACHINBEER FAN,L1-101-SALESREACHINBEER EXHAUST NODE,L1-101-SALESREACHINBEER FAN OUTLET NODE,Air Nodes
 Component Set,43,ZONEHVAC:UNITHEATER,L1-101-SALESREACHINCHEES ZONE HEATER,FAN:CONSTANTVOLUME,L1-101-SALESREACHINCHEES FAN,L1-101-SALESREACHINCHEES EXHAUST NODE,L1-101-SALESREACHINCHEES FAN OUTLET NODE,Air Nodes
 Component Set,44,ZONEHVAC:UNITHEATER,L1-119-DELICOOLER ZONE HEATER,FAN:CONSTANTVOLUME,L1-119-DELICOOLER FAN,L1-119-DELICOOLER EXHAUST NODE,L1-119-DELICOOLER FAN OUTLET NODE,Air Nodes
 Component Set,45,ZONEHVAC:UNITHEATER,M-164-MEATCOOLER ZONE HEATER,FAN:CONSTANTVOLUME,M-164-MEATCOOLER FAN,M-164-MEATCOOLER EXHAUST NODE,M-164-MEATCOOLER FAN OUTLET NODE,Air Nodes
 Component Set,46,ZONEHVAC:UNITHEATER,L1S1 LOADING UNIT HEATER GAS,COIL:HEATING:FUEL,UNIT HEATER GAS HTG COIL,L1S1 LOADING UNIT HEATER GAS FAN OUTLET NODE,NODE 6,Air Nodes
 Component Set,47,ZONEHVAC:UNITHEATER,M201 EXGSTORAGE UNIT HEATER GAS,COIL:HEATING:FUEL,UNIT HEATER GAS HTG COIL 1,M201 EXGSTORAGE UNIT HEATER GAS FAN OUTLET NODE,NODE 8,Air Nodes
 Component Set,48,ZONEHVAC:UNITHEATER,L1-101-DAIRY1 ZONE HEATER,COIL:HEATING:FUEL,L1-101-DAIRY1 GAS HTG COIL,L1-101-DAIRY1 FAN OUTLET NODE,L1-101-DAIRY1 INLET NODE,Air Nodes
 Component Set,49,ZONEHVAC:UNITHEATER,L1-101-DAIRY2 ZONE HEATER,COIL:HEATING:FUEL,L1-101-DAIRY2 GAS HTG COIL,L1-101-DAIRY2 FAN OUTLET NODE,L1-101-DAIRY2 INLET NODE,Air Nodes
 Component Set,50,ZONEHVAC:UNITHEATER,L1-101-MEATSEAFOOD ZONE HEATER,COIL:HEATING:FUEL,L1-101-MEATSEAFOOD GAS HTG COIL,L1-101-MEATSEAFOOD FAN OUTLET NODE,L1-101-MEATSEAFOOD INLET NODE,Air Nodes
 Component Set,51,ZONEHVAC:UNITHEATER,L1-111-GROCERYFREEZER ZONE HEATER,COIL:HEATING:FUEL,L1-111-GROCERYFREEZER GAS HTG COIL,L1-111-GROCERYFREEZER FAN OUTLET NODE,L1-111-GROCERYFREEZER INLET NODE,Air Nodes
 Component Set,52,ZONEHVAC:UNITHEATER,L1-110-PRODUCEPREP ZONE HEATER,COIL:HEATING:FUEL,L1-110-PRODUCEPREP GAS HTG COIL,L1-110-PRODUCEPREP FAN OUTLET NODE,L1-110-PRODUCEPREP INLET NODE,Air Nodes
 Component Set,53,ZONEHVAC:UNITHEATER,L1-101-SALESAISLE1 ZONE HEATER,COIL:HEATING:FUEL,L1-101-SALESAISLE1 GAS HTG COIL,L1-101-SALESAISLE1 FAN OUTLET NODE,L1-101-SALESAISLE1 INLET NODE,Air Nodes
 Component Set,54,ZONEHVAC:UNITHEATER,L1-101-SALESAISLE2 ZONE HEATER,COIL:HEATING:FUEL,L1-101-SALESAISLE2 GAS HTG COIL,L1-101-SALESAISLE2 FAN OUTLET NODE,L1-101-SALESAISLE2 INLET NODE,Air Nodes
 Component Set,55,ZONEHVAC:UNITHEATER,L1-101-SALESAISLE3 ZONE HEATER,COIL:HEATING:FUEL,L1-101-SALESAISLE3 GAS HTG COIL,L1-101-SALESAISLE3 FAN OUTLET NODE,L1-101-SALESAISLE3 INLET NODE,Air Nodes
 Component Set,56,ZONEHVAC:UNITHEATER,L1-101-SALESAISLE4 ZONE HEATER,COIL:HEATING:FUEL,L1-101-SALESAISLE4 GAS HTG COIL,L1-101-SALESAISLE4 FAN OUTLET NODE,L1-101-SALESAISLE4 INLET NODE,Air Nodes
 Component Set,57,ZONEHVAC:UNITHEATER,L1-101-SALESAISLE5 ZONE HEATER,COIL:HEATING:FUEL,L1-101-SALESAISLE5 GAS HTG COIL,L1-101-SALESAISLE5 FAN OUTLET NODE,L1-101-SALESAISLE5 INLET NODE,Air Nodes
 Component Set,58,ZONEHVAC:UNITHEATER,L1-101-SALESAISLE6 ZONE HEATER,COIL:HEATING:FUEL,L1-101-SALESAISLE6 GAS HTG COIL,L1-101-SALESAISLE6 FAN OUTLET NODE,L1-101-SALESAISLE6 INLET NODE,Air Nodes
 Component Set,59,ZONEHVAC:UNITHEATER,L1-101-SALESAISLE7 ZONE HEATER,COIL:HEATING:FUEL,L1-101-SALESAISLE7 GAS HTG COIL,L1-101-SALESAISLE7 FAN OUTLET NODE,L1-101-SALESAISLE7 INLET NODE,Air Nodes
 Component Set,60,ZONEHVAC:UNITHEATER,L1-115-MEATSEAFOOD ZONE HEATER,COIL:HEATING:FUEL,L1-115-MEATSEAFOOD GAS HTG COIL,L1-115-MEATSEAFOOD FAN OUTLET NODE,L1-115-MEATSEAFOOD INLET NODE,Air Nodes
 Component Set,61,ZONEHVAC:UNITHEATER,L1-112-DAIRYCOOLER ZONE HEATER,COIL:HEATING:FUEL,L1-112-DAIRYCOOLER GAS HTG COIL,L1-112-DAIRYCOOLER FAN OUTLET NODE,L1-112-DAIRYCOOLER INLET NODE,Air Nodes
 Component Set,62,ZONEHVAC:UNITHEATER,L1-101-SALESREACHINDAIRY3 ZONE HEATER,COIL:HEATING:FUEL,L1-101-SALESREACHINDAIRY3 GAS HTG COIL,L1-101-SALESREACHINDAIRY3 FAN OUTLET NODE,L1-101-SALESREACHINDAIRY3 INLET NODE,Air Nodes
 Component Set,63,ZONEHVAC:UNITHEATER,L1-101-SALESAISLE1 NOTREFRIG ZONE HEATER,COIL:HEATING:FUEL,L1-101-SALESAISLE1 NOTREFRIG GAS HTG COIL,L1-101-SALESAISLE1 NOTREFRIG FAN OUTLET NODE,L1-101-SALESAISLE1 NOTREFRIG INLET NODE,Air Nodes
 Component Set,64,ZONEHVAC:UNITHEATER,L1-101-SALESREACHINMEATSUB ZONE HEATER,COIL:HEATING:FUEL,L1-101-SALESREACHINMEATSUB GAS HTG COIL,L1-101-SALESREACHINMEATSUB FAN OUTLET NODE,L1-101-SALESREACHINMEATSUB INLET NODE,Air Nodes
 Component Set,65,ZONEHVAC:UNITHEATER,L1-108-PRODUCECOOLER ZONE HEATER,COIL:HEATING:FUEL,L1-108-PRODUCECOOLER GAS HTG COIL,L1-108-PRODUCECOOLER FAN OUTLET NODE,L1-108-PRODUCECOOLER INLET NODE,Air Nodes
 Component Set,66,ZONEHVAC:UNITHEATER,L1-104-PRODUCECOOLERS2 ZONE HEATER,COIL:HEATING:FUEL,L1-104-PRODUCECOOLERS2 GAS HTG COIL,L1-104-PRODUCECOOLERS2 FAN OUTLET NODE,L1-104-PRODUCECOOLERS2 INLET NODE,Air Nodes
 Component Set,67,ZONEHVAC:UNITHEATER,L1-104-PRODUCECOOLERS1 ZONE HEATER,COIL:HEATING:FUEL,L1-104-PRODUCECOOLERS1 GAS HTG COIL,L1-104-PRODUCECOOLERS1 FAN OUTLET NODE,L1-104-PRODUCECOOLERS1 INLET NODE,Air Nodes
 Component Set,68,ZONEHVAC:UNITHEATER,L1-104-PRODUCECOOLERS3 ZONE HEATER,COIL:HEATING:FUEL,L1-104-PRODUCECOOLERS3 GAS HTG COIL,L1-104-PRODUCECOOLERS3 FAN OUTLET NODE,L1-104-PRODUCECOOLERS3 INLET NODE,Air Nodes
 Component Set,69,ZONEHVAC:UNITHEATER,L1-101-SALESAISLE4 NOREFRIG ZONE HEATER,COIL:HEATING:FUEL,L1-101-SALESAISLE4 NOREFRIG GAS HTG COIL,L1-101-SALESAISLE4 NOREFRIG FAN OUTLET NODE,L1-101-SALESAISLE4 NOREFRIG INLET NODE,Air Nodes
 Component Set,70,ZONEHVAC:UNITHEATER,L1-125-PREPAREDFOODS1 ZONE HEATER,COIL:HEATING:FUEL,L1-125-PREPAREDFOODS1 GAS HTG COIL,L1-125-PREPAREDFOODS1 FAN OUTLET NODE,L1-125-PREPAREDFOODS1 INLET NODE,Air Nodes
 Component Set,71,ZONEHVAC:UNITHEATER,L1-124-SPECIALTYSERVICE ZONE HEATER,COIL:HEATING:FUEL,L1-124-SPECIALTYSERVICE GAS HTG COIL,L1-124-SPECIALTYSERVICE FAN OUTLET NODE,L1-124-SPECIALTYSERVICE INLET NODE,Air Nodes
 Component Set,72,ZONEHVAC:UNITHEATER,L1-101-SALESCIRCULATION10 ZONE HEATER,COIL:HEATING:FUEL,L1-101-SALESCIRCULATION10 GAS HTG COIL,L1-101-SALESCIRCULATION10 FAN OUTLET NODE,L1-101-SALESCIRCULATION10 INLET NODE,Air Nodes
 Component Set,73,ZONEHVAC:UNITHEATER,L1-101-SALESREACHINBEVERAGES ZONE HEATER,COIL:HEATING:FUEL,L1-101-SALESREACHINBEVERAGES GAS HTG COIL,L1-101-SALESREACHINBEVERAGES FAN OUTLET NODE,L1-101-SALESREACHINBEVERAGES INLET NODE,Air Nodes
 Component Set,74,ZONEHVAC:UNITHEATER,L1-101-SALESREACHINPREPARED ZONE HEATER,COIL:HEATING:FUEL,L1-101-SALESREACHINPREPARED GAS HTG COIL,L1-101-SALESREACHINPREPARED FAN OUTLET NODE,L1-101-SALESREACHINPREPARED INLET NODE,Air Nodes
 Component Set,75,ZONEHVAC:UNITHEATER,L1-101-SALESREACHINCHEES ZONE HEATER,COIL:HEATING:FUEL,L1-101-SALESREACHINCHEES GAS HTG COIL,L1-101-SALESREACHINCHEES FAN OUTLET NODE,L1-101-SALESREACHINCHEES INLET NODE,Air Nodes
 Component Set,76,ZONEHVAC:UNITHEATER,L1-101-SALESREACHINBEER ZONE HEATER,COIL:HEATING:FUEL,L1-101-SALESREACHINBEER GAS HTG COIL,L1-101-SALESREACHINBEER FAN OUTLET NODE,L1-101-SALESREACHINBEER INLET NODE,Air Nodes
 Component Set,77,ZONEHVAC:UNITHEATER,L1-119-DELICOOLER ZONE HEATER,COIL:HEATING:FUEL,L1-119-DELICOOLER GAS HTG COIL,L1-119-DELICOOLER FAN OUTLET NODE,L1-119-DELICOOLER INLET NODE,Air Nodes
 Component Set,78,ZONEHVAC:UNITHEATER,M-164-MEATCOOLER ZONE HEATER,COIL:HEATING:FUEL,M-164-MEATCOOLER GAS HTG COIL,M-164-MEATCOOLER FAN OUTLET NODE,M-164-MEATCOOLER INLET NODE,Air Nodes
 Component Set,79,ZONEHVAC:PACKAGEDTERMINALHEATPUMP,M-152 MDF ROOM DAC,COIL:HEATING:ELECTRIC,PTHP ELEC HTG BACKUP COIL,M-152 MDF ROOM DAC FAN OUTLET NODE,NODE 10,Air Nodes
 Component Set,80,ZONEHVAC:PACKAGEDTERMINALHEATPUMP,M-152 MDF ROOM DAC,OUTDOORAIR:MIXER,M-152 MDF ROOM DAC OA MIXER,M-152 MDF ROOM DAC OA NODE,M-152 MDF ROOM DAC MIXED AIR NODE,Air Nodes
 Component Set,81,AIRLOOPHVAC:OUTDOORAIRSYSTEM,AIR LOOP HVAC OUTDOOR AIR SYSTEM 3,OUTDOORAIR:MIXER,AIR LOOP HVAC OUTDOOR AIR SYSTEM 3 OUTDOOR AIR MIXER,BOH OA INLET NODE,BOH PRE-FURNACE NODE,Air Nodes
 Component Set,82,AIRLOOPHVAC:OUTDOORAIRSYSTEM,AIR LOOP HVAC OUTDOOR AIR SYSTEM 2,OUTDOORAIR:MIXER,AIR LOOP HVAC OUTDOOR AIR SYSTEM 2 OUTDOOR AIR MIXER,PACU EAST OH INLET NODE,PACU EAST PRE-COIL NODE,Air Nodes
 Component Set,83,AIRLOOPHVAC:OUTDOORAIRSYSTEM,AIR LOOP HVAC OUTDOOR AIR SYSTEM 1,OUTDOORAIR:MIXER,AIR LOOP HVAC OUTDOOR AIR SYSTEM 1 OUTDOOR AIR MIXER,PACU WEST OH INLET NODE,PACU WEST PRE COIL NODE,Air Nodes
 Component Set,84,ZONEHVAC:PACKAGEDTERMINALHEATPUMP,M-152 MDF ROOM DAC,COIL:COOLING:DX:SINGLESPEED,PTHP 1 SPD DX CLG COIL,M-152 MDF ROOM DAC MIXED AIR NODE,M-152 MDF ROOM DAC COOLING COIL OUTLET NODE,Air Nodes
 Component Set,85,COILSYSTEM:COOLING:DX,PACU WEST 1 SPD DX CLG COIL COILSYSTEM,COIL:COOLING:DX:SINGLESPEED,PACU WEST 1 SPD DX CLG COIL,PACU EAST PRE-COIL NODE,PACU EAST PREHEAT NODE,Air Nodes
 Component Set,86,COILSYSTEM:COOLING:DX,PACU EAST 1 SPD DX CLG COIL COILSYSTEM,COIL:COOLING:DX:SINGLESPEED,PACU EAST 1 SPD DX CLG COIL,PACU WEST PRE COIL NODE,PACU PRE-HEAT NODE,Air Nodes
 Component Set,87,ZONEHVAC:PACKAGEDTERMINALHEATPUMP,M-152 MDF ROOM DAC,COIL:HEATING:DX:SINGLESPEED,PTHP 1 SPD DX HTG COIL,M-152 MDF ROOM DAC COOLING COIL OUTLET NODE,M-152 MDF ROOM DAC HEATING COIL OUTLET NODE,Air Nodes
! ===============================================================
! <# Plant Loops>,<Number of Plant Loops>
 #Plant Loops,0
! <Plant Loop>,<Plant Loop Name>,<Loop Type>,<Inlet Node Name>,<Outlet Node Name>,<Branch List>,<Connector List>
! <Plant Loop Connector>,<Connector Type>,<Connector Name>,<Loop Name>,<Loop Type>,<Number of Inlets/Outlets>
! <Plant Loop Connector Branches>,<Connector Node Count>,<Connector Type>,<Connector Name>,<Inlet Branch>,<Outlet Branch>,<Loop Name>,<Loop Type>
! <Plant Loop Connector Nodes>,<Connector Node Count>,<Connector Type>,<Connector Name>,<Inlet Node>,<Outlet Node>,<Loop Name>,<Loop Type>
! <Plant Loop Supply Connection>,<Plant Loop Name>,<Supply Side Outlet Node Name>,<Demand Side Inlet Node Name>
! <Plant Loop Return Connection>,<Plant Loop Name>,<Demand Side Outlet Node Name>,<Supply Side Inlet Node Name>
! ===============================================================
! <# Condenser Loops>,<Number of Condenser Loops>
 #Condenser Loops,0
! <Condenser Loop>,<Condenser Loop Name>,<Loop Type>,<Inlet Node Name>,<Outlet Node Name>,<Branch List>,<Connector List>
! <Condenser Loop Connector>,<Connector Type>,<Connector Name>,<Loop Name>,<Loop Type>,<Number of Inlets/Outlets>
! <Condenser Loop Connector Branches>,<Connector Node Count>,<Connector Type>,<Connector Name>,<Inlet Branch>,<Outlet Branch>,<Loop Name>,<Loop Type>
! <Condenser Loop Connector Nodes>,<Connector Node Count>,<Connector Type>,<Connector Name>,<Inlet Node>,<Outlet Node>,<Loop Name>,<Loop Type>
! <Condenser Loop Supply Connection>,<Condenser Loop Name>,<Supply Side Outlet Node Name>,<Demand Side Inlet Node Name>
! <Condenser Loop Return Connection>,<Condenser Loop Name>,<Demand Side Outlet Node Name>,<Supply Side Inlet Node Name>
! ===============================================================
! <# Controlled Zones>,<Number of Controlled Zones>
 #Controlled Zones,57
! <Controlled Zone>,<Controlled Zone Name>,<Equip List Name>,<Control List Name>,<Zone Node Name>,<Return Air Node Name>,<# Inlet Nodes>,<# Exhaust Nodes>
! <Controlled Zone Inlet>,<Inlet Node Count>,<Controlled Zone Name>,<Supply Air Inlet Node Name>,<SD Sys:Cooling/Heating [DD:Cooling] Inlet Node Name>,<DD Sys:Heating Inlet Node Name>
! <Controlled Zone Exhaust>,<Exhaust Node Count>,<Controlled Zone Name>,<Exhaust Air Node Name>
 Controlled Zone,L1-101-SALESAISLE1 THERMAL ZONE,L1-101-SALESAISLE1 NOTREFRIG EQUIPMENT LIST,,L1-101-SALESAISLE1 NOTREFRIG AIR NODE,L1-101-SALESAISLE1 NOTREFRIG RETURN AIR NODE,1,1
   Controlled Zone Inlet,1,L1-101-SALESAISLE1 THERMAL ZONE,L1-101-SALESAISLE1 NOTREFRIG INLET NODE,Undefined,N/A
   Controlled Zone Exhaust,1,L1-101-SALESAISLE1 THERMAL ZONE,L1-101-SALESAISLE1 NOTREFRIG EXHAUST NODE
 Controlled Zone,L1-101-SALESAISLE4 THERMAL ZONE,L1-101-SALESAISLE4 NOREFRIG EQUIPMENT LIST,,L1-101-SALESAISLE4 NOREFRIG AIR NODE,L1-101-SALESAISLE4 NOREFRIG RETURN AIR NODE,1,1
   Controlled Zone Inlet,1,L1-101-SALESAISLE4 THERMAL ZONE,L1-101-SALESAISLE4 NOREFRIG INLET NODE,Undefined,N/A
   Controlled Zone Exhaust,1,L1-101-SALESAISLE4 THERMAL ZONE,L1-101-SALESAISLE4 NOREFRIG EXHAUST NODE
 Controlled Zone,L1-101-SALESCIRCULATION10 THERMAL ZONE,L1-101-SALESCIRCULATION10 EQUIPMENT LIST,,L1-101-SALESCIRCULATION10 AIR NODE,L1-101-SALESCIRCULATION10 RETURN AIR NODE,1,1
   Controlled Zone Inlet,1,L1-101-SALESCIRCULATION10 THERMAL ZONE,L1-101-SALESCIRCULATION10 INLET NODE,Undefined,N/A
   Controlled Zone Exhaust,1,L1-101-SALESCIRCULATION10 THERMAL ZONE,L1-101-SALESCIRCULATION10 EXHAUST NODE
 Controlled Zone,L1-101-SALESCIRCULATIONMEATSEAFOOD THERMAL ZONE,L1-101-MEATSEAFOOD EQUIPMENT LIST,,L1-101-MEATSEAFOOD AIR NODE,L1-101-MEATSEAFOOD RETURN AIR NODE,1,1
   Controlled Zone Inlet,1,L1-101-SALESCIRCULATIONMEATSEAFOOD THERMAL ZONE,L1-101-MEATSEAFOOD INLET NODE,Undefined,N/A
   Controlled Zone Exhaust,1,L1-101-SALESCIRCULATIONMEATSEAFOOD THERMAL ZONE,L1-101-MEATSEAFOOD EXHAUST NODE
 Controlled Zone,L1-101-SALESREFRIGERATIONAISLE1 THERMAL ZONE,L1-101-SALESAISLE1 EQUIPMENT LIST,,L1-101-SALESAISLE1 AIR NODE,L1-101-SALESAISLE1 RETURN AIR NODE,1,1
   Controlled Zone Inlet,1,L1-101-SALESREFRIGERATIONAISLE1 THERMAL ZONE,L1-101-SALESAISLE1 INLET NODE,Undefined,N/A
   Controlled Zone Exhaust,1,L1-101-SALESREFRIGERATIONAISLE1 THERMAL ZONE,L1-101-SALESAISLE1 EXHAUST NODE
 Controlled Zone,L1-101-SALESREFRIGERATIONAISLE2 THERMAL ZONE,L1-101-SALESAISLE2 EQUIPMENT LIST,,L1-101-SALESAISLE2 AIR NODE,L1-101-SALESAISLE2 RETURN AIR NODE,1,1
   Controlled Zone Inlet,1,L1-101-SALESREFRIGERATIONAISLE2 THERMAL ZONE,L1-101-SALESAISLE2 INLET NODE,Undefined,N/A
   Controlled Zone Exhaust,1,L1-101-SALESREFRIGERATIONAISLE2 THERMAL ZONE,L1-101-SALESAISLE2 EXHAUST NODE
 Controlled Zone,L1-101-SALESREFRIGERATIONAISLE3 THERMAL ZONE,L1-101-SALESAISLE3 EQUIPMENT LIST,,L1-101-SALESAISLE3 AIR NODE,L1-101-SALESAISLE3 RETURN AIR NODE,1,1
   Controlled Zone Inlet,1,L1-101-SALESREFRIGERATIONAISLE3 THERMAL ZONE,L1-101-SALESAISLE3 INLET NODE,Undefined,N/A
   Controlled Zone Exhaust,1,L1-101-SALESREFRIGERATIONAISLE3 THERMAL ZONE,L1-101-SALESAISLE3 EXHAUST NODE
 Controlled Zone,L1-101-SALESREFRIGERATIONAISLE4 THERMAL ZONE,L1-101-SALESAISLE4 EQUIPMENT LIST,,L1-101-SALESAISLE4 AIR NODE,L1-101-SALESAISLE4 RETURN AIR NODE,1,1
   Controlled Zone Inlet,1,L1-101-SALESREFRIGERATIONAISLE4 THERMAL ZONE,L1-101-SALESAISLE4 INLET NODE,Undefined,N/A
   Controlled Zone Exhaust,1,L1-101-SALESREFRIGERATIONAISLE4 THERMAL ZONE,L1-101-SALESAISLE4 EXHAUST NODE
 Controlled Zone,L1-101-SALESREFRIGERATIONAISLE5 THERMAL ZONE,L1-101-SALESAISLE5 EQUIPMENT LIST,,L1-101-SALESAISLE5 AIR NODE,L1-101-SALESAISLE5 RETURN AIR NODE,1,1
   Controlled Zone Inlet,1,L1-101-SALESREFRIGERATIONAISLE5 THERMAL ZONE,L1-101-SALESAISLE5 INLET NODE,Undefined,N/A
   Controlled Zone Exhaust,1,L1-101-SALESREFRIGERATIONAISLE5 THERMAL ZONE,L1-101-SALESAISLE5 EXHAUST NODE
 Controlled Zone,L1-101-SALESREFRIGERATIONAISLE6 THERMAL ZONE,L1-101-SALESAISLE6 EQUIPMENT LIST,,L1-101-SALESAISLE6 AIR NODE,L1-101-SALESAISLE6 RETURN AIR NODE,1,1
   Controlled Zone Inlet,1,L1-101-SALESREFRIGERATIONAISLE6 THERMAL ZONE,L1-101-SALESAISLE6 INLET NODE,Undefined,N/A
   Controlled Zone Exhaust,1,L1-101-SALESREFRIGERATIONAISLE6 THERMAL ZONE,L1-101-SALESAISLE6 EXHAUST NODE
 Controlled Zone,L1-101-SALESREFRIGERATIONAISLE7 THERMAL ZONE,L1-101-SALESAISLE7 EQUIPMENT LIST,,L1-101-SALESAISLE7 AIR NODE,L1-101-SALESAISLE7 RETURN AIR NODE,1,1
   Controlled Zone Inlet,1,L1-101-SALESREFRIGERATIONAISLE7 THERMAL ZONE,L1-101-SALESAISLE7 INLET NODE,Undefined,N/A
   Controlled Zone Exhaust,1,L1-101-SALESREFRIGERATIONAISLE7 THERMAL ZONE,L1-101-SALESAISLE7 EXHAUST NODE
 Controlled Zone,L1-101-SALESREFRIGERATIONREACHINBEER THERMAL ZONE,L1-101-SALESREACHINBEER EQUIPMENT LIST,,L1-101-SALESREACHINBEER AIR NODE,L1-101-SALESREACHINBEER RETURN AIR NODE,1,1
   Controlled Zone Inlet,1,L1-101-SALESREFRIGERATIONREACHINBEER THERMAL ZONE,L1-101-SALESREACHINBEER INLET NODE,Undefined,N/A
   Controlled Zone Exhaust,1,L1-101-SALESREFRIGERATIONREACHINBEER THERMAL ZONE,L1-101-SALESREACHINBEER EXHAUST NODE
 Controlled Zone,L1-101-SALESREFRIGERATIONREACHINBEVERAGES THERMAL ZONE,L1-101-SALESREACHINBEVERAGES EQUIPMENT LIST,,L1-101-SALESREACHINBEVERAGES AIR NODE,L1-101-SALESREACHINBEVERAGES RETURN AIR NODE,1,1
   Controlled Zone Inlet,1,L1-101-SALESREFRIGERATIONREACHINBEVERAGES THERMAL ZONE,L1-101-SALESREACHINBEVERAGES INLET NODE,Undefined,N/A
   Controlled Zone Exhaust,1,L1-101-SALESREFRIGERATIONREACHINBEVERAGES THERMAL ZONE,L1-101-SALESREACHINBEVERAGES EXHAUST NODE
 Controlled Zone,L1-101-SALESREFRIGERATIONREACHINCHEES THERMAL ZONE,L1-101-SALESREACHINCHEES EQUIPMENT LIST,,L1-101-SALESREACHINCHEES AIR NODE,L1-101-SALESREACHINCHEES RETURN AIR NODE,1,1
   Controlled Zone Inlet,1,L1-101-SALESREFRIGERATIONREACHINCHEES THERMAL ZONE,L1-101-SALESREACHINCHEES INLET NODE,Undefined,N/A
   Controlled Zone Exhaust,1,L1-101-SALESREFRIGERATIONREACHINCHEES THERMAL ZONE,L1-101-SALESREACHINCHEES EXHAUST NODE
 Controlled Zone,L1-101-SALESREFRIGERATIONREACHINDAIRY1 THERMAL ZONE,L1-101-DAIRY1 EQUIPMENT LIST,,L1-101-DAIRY1 AIR NODE,L1-101-DAIRY1 RETURN AIR NODE,1,1
   Controlled Zone Inlet,1,L1-101-SALESREFRIGERATIONREACHINDAIRY1 THERMAL ZONE,L1-101-DAIRY1 INLET NODE,Undefined,N/A
   Controlled Zone Exhaust,1,L1-101-SALESREFRIGERATIONREACHINDAIRY1 THERMAL ZONE,L1-101-DAIRY1 EXHAUST NODE
 Controlled Zone,L1-101-SALESREFRIGERATIONREACHINDAIRY2 THERMAL ZONE,L1-101-DAIRY2 EQUIPMENT LIST,,L1-101-DAIRY2 AIR NODE,L1-101-DAIRY2 RETURN AIR NODE,1,1
   Controlled Zone Inlet,1,L1-101-SALESREFRIGERATIONREACHINDAIRY2 THERMAL ZONE,L1-101-DAIRY2 INLET NODE,Undefined,N/A
   Controlled Zone Exhaust,1,L1-101-SALESREFRIGERATIONREACHINDAIRY2 THERMAL ZONE,L1-101-DAIRY2 EXHAUST NODE
 Controlled Zone,L1-101-SALESREFRIGERATIONREACHINDAIRY3 THERMAL ZONE,L1-101-SALESREACHINDAIRY3 EQUIPMENT LIST,,L1-101-SALESREACHINDAIRY3 AIR NODE,L1-101-SALESREACHINDAIRY3 RETURN AIR NODE,1,1
   Controlled Zone Inlet,1,L1-101-SALESREFRIGERATIONREACHINDAIRY3 THERMAL ZONE,L1-101-SALESREACHINDAIRY3 INLET NODE,Undefined,N/A
   Controlled Zone Exhaust,1,L1-101-SALESREFRIGERATIONREACHINDAIRY3 THERMAL ZONE,L1-101-SALESREACHINDAIRY3 EXHAUST NODE
 Controlled Zone,L1-101-SALESREFRIGERATIONREACHINMEATSUBSTITUTES THERMAL ZONE,L1-101-SALESREACHINMEATSUB EQUIPMENT LIST,,L1-101-SALESREACHINMEATSUB AIR NODE,L1-101-SALESREACHINMEATSUB RETURN AIR NODE,1,1
   Controlled Zone Inlet,1,L1-101-SALESREFRIGERATIONREACHINMEATSUBSTITUTES THERMAL ZONE,L1-101-SALESREACHINMEATSUB INLET NODE,Undefined,N/A
   Controlled Zone Exhaust,1,L1-101-SALESREFRIGERATIONREACHINMEATSUBSTITUTES THERMAL ZONE,L1-101-SALESREACHINMEATSUB EXHAUST NODE
 Controlled Zone,L1-101-SALESREFRIGERATIONREACHINPREPARED THERMAL ZONE,L1-101-SALESREACHINPREPARED EQUIPMENT LIST,,L1-101-SALESREACHINPREPARED AIR NODE,L1-101-SALESREACHINPREPARED RETURN AIR NODE,1,1
   Controlled Zone Inlet,1,L1-101-SALESREFRIGERATIONREACHINPREPARED THERMAL ZONE,L1-101-SALESREACHINPREPARED INLET NODE,Undefined,N/A
   Controlled Zone Exhaust,1,L1-101-SALESREFRIGERATIONREACHINPREPARED THERMAL ZONE,L1-101-SALESREACHINPREPARED EXHAUST NODE
 Controlled Zone,L1-104-PRODUCECOOLERS1 THERMAL ZONE,L1-104-PRODUCECOOLERS1 EQUIPMENT LIST,,L1-104-PRODUCECOOLERS1 AIR NODE,L1-104-PRODUCECOOLERS1 RETURN AIR NODE,1,1
   Controlled Zone Inlet,1,L1-104-PRODUCECOOLERS1 THERMAL ZONE,L1-104-PRODUCECOOLERS1 INLET NODE,Undefined,N/A
   Controlled Zone Exhaust,1,L1-104-PRODUCECOOLERS1 THERMAL ZONE,L1-104-PRODUCECOOLERS1 EXHAUST NODE
 Controlled Zone,L1-104-PRODUCECOOLERS2 THERMAL ZONE,L1-104-PRODUCECOOLERS2 EQUIPMENT LIST,,L1-104-PRODUCECOOLERS2 AIR NODE,L1-104-PRODUCECOOLERS2 RETURN AIR NODE,1,1
   Controlled Zone Inlet,1,L1-104-PRODUCECOOLERS2 THERMAL ZONE,L1-104-PRODUCECOOLERS2 INLET NODE,Undefined,N/A
   Controlled Zone Exhaust,1,L1-104-PRODUCECOOLERS2 THERMAL ZONE,L1-104-PRODUCECOOLERS2 EXHAUST NODE
 Controlled Zone,L1-104-PRODUCECOOLERS3 THERMAL ZONE,L1-104-PRODUCECOOLERS3 EQUIPMENT LIST,,L1-104-PRODUCECOOLERS3 AIR NODE,L1-104-PRODUCECOOLERS3 RETURN AIR NODE,1,1
   Controlled Zone Inlet,1,L1-104-PRODUCECOOLERS3 THERMAL ZONE,L1-104-PRODUCECOOLERS3 INLET NODE,Undefined,N/A
   Controlled Zone Exhaust,1,L1-104-PRODUCECOOLERS3 THERMAL ZONE,L1-104-PRODUCECOOLERS3 EXHAUST NODE
 Controlled Zone,L1-108-PRODUCECOOLER THERMAL ZONE,L1-108-PRODUCECOOLER EQUIPMENT LIST,,L1-108-PRODUCECOOLER AIR NODE,L1-108-PRODUCECOOLER RETURN AIR NODE,1,1
   Controlled Zone Inlet,1,L1-108-PRODUCECOOLER THERMAL ZONE,L1-108-PRODUCECOOLER INLET NODE,Undefined,N/A
   Controlled Zone Exhaust,1,L1-108-PRODUCECOOLER THERMAL ZONE,L1-108-PRODUCECOOLER EXHAUST NODE
 Controlled Zone,L1-110-PRODUCEPREP THERMAL ZONE,L1-110-PRODUCEPREP EQUIPMENT LIST,,L1-110-PRODUCEPREP AIR NODE,L1-110-PRODUCEPREP RETURN AIR NODE,1,1
   Controlled Zone Inlet,1,L1-110-PRODUCEPREP THERMAL ZONE,L1-110-PRODUCEPREP INLET NODE,Undefined,N/A
   Controlled Zone Exhaust,1,L1-110-PRODUCEPREP THERMAL ZONE,L1-110-PRODUCEPREP EXHAUST NODE
 Controlled Zone,L1-111-GROCERYFREEZER THERMAL ZONE,L1-111-GROCERYFREEZER EQUIPMENT LIST,,L1-111-GROCERYFREEZER AIR NODE,L1-111-GROCERYFREEZER RETURN AIR NODE,1,1
   Controlled Zone Inlet,1,L1-111-GROCERYFREEZER THERMAL ZONE,L1-111-GROCERYFREEZER INLET NODE,Undefined,N/A
   Controlled Zone Exhaust,1,L1-111-GROCERYFREEZER THERMAL ZONE,L1-111-GROCERYFREEZER EXHAUST NODE
 Controlled Zone,L1-112-DAIRYCOOLER THERMAL ZONE,L1-112-DAIRYCOOLER EQUIPMENT LIST,,L1-112-DAIRYCOOLER AIR NODE,L1-112-DAIRYCOOLER RETURN AIR NODE,1,1
   Controlled Zone Inlet,1,L1-112-DAIRYCOOLER THERMAL ZONE,L1-112-DAIRYCOOLER INLET NODE,Undefined,N/A
   Controlled Zone Exhaust,1,L1-112-DAIRYCOOLER THERMAL ZONE,L1-112-DAIRYCOOLER EXHAUST NODE
 Controlled Zone,L1-115-MEATSEAFOODCOOLER THERMAL ZONE,L1-115-MEATSEAFOOD EQUIPMENT LIST,,L1-115-MEATSEAFOOD AIR NODE,L1-115-MEATSEAFOOD RETURN AIR NODE,1,1
   Controlled Zone Inlet,1,L1-115-MEATSEAFOODCOOLER THERMAL ZONE,L1-115-MEATSEAFOOD INLET NODE,Undefined,N/A
   Controlled Zone Exhaust,1,L1-115-MEATSEAFOODCOOLER THERMAL ZONE,L1-115-MEATSEAFOOD EXHAUST NODE
 Controlled Zone,L1-119-DELICOOLER THERMAL ZONE,L1-119-DELICOOLER EQUIPMENT LIST,,L1-119-DELICOOLER AIR NODE,L1-119-DELICOOLER RETURN AIR NODE,1,1
   Controlled Zone Inlet,1,L1-119-DELICOOLER THERMAL ZONE,L1-119-DELICOOLER INLET NODE,Undefined,N/A
   Controlled Zone Exhaust,1,L1-119-DELICOOLER THERMAL ZONE,L1-119-DELICOOLER EXHAUST NODE
 Controlled Zone,L1-124-SPECIALTYSERVICE THERMAL ZONE,L1-124-SPECIALTYSERVICE EQUIPMENT LIST,,L1-124-SPECIALTYSERVICE AIR NODE,L1-124-SPECIALTYSERVICE RETURN AIR NODE,1,1
   Controlled Zone Inlet,1,L1-124-SPECIALTYSERVICE THERMAL ZONE,L1-124-SPECIALTYSERVICE INLET NODE,Undefined,N/A
   Controlled Zone Exhaust,1,L1-124-SPECIALTYSERVICE THERMAL ZONE,L1-124-SPECIALTYSERVICE EXHAUST NODE
 Controlled Zone,L1-125-PREPAREDFOODS1 THERMAL ZONE,L1-125-PREPAREDFOODS1 EQUIPMENT LIST,,L1-125-PREPAREDFOODS1 AIR NODE,L1-125-PREPAREDFOODS1 RETURN AIR NODE,1,1
   Controlled Zone Inlet,1,L1-125-PREPAREDFOODS1 THERMAL ZONE,L1-125-PREPAREDFOODS1 INLET NODE,Undefined,N/A
   Controlled Zone Exhaust,1,L1-125-PREPAREDFOODS1 THERMAL ZONE,L1-125-PREPAREDFOODS1 EXHAUST NODE
 Controlled Zone,L1S1-CHECKOUT THERMAL ZONE,L1S1-CHECKOUT THERMAL ZONE EQUIPMENT LIST,,{38762942-7D7E-4CAC-9DDD-1F779D226BEF},L1S1 CHECKOUT OUTLET NODE,1,0
   Controlled Zone Inlet,1,L1S1-CHECKOUT THERMAL ZONE,L1S1 CHECKOUT INLET NODE,L1S1 CHECKOUT INLET NODE,N/A
 Controlled Zone,L1S1-COFFEE THERMAL ZONE,L1S1-COFFEE THERMAL ZONE EQUIPMENT LIST,,{03A1B42A-0430-42FB-95D3-3830E098BF7C},L1S1-COFFEE THERMAL ZONE RETURN AIR NODE,0,1
   Controlled Zone Exhaust,1,L1S1-COFFEE THERMAL ZONE,NODE 3
 Controlled Zone,L1S1-LOADING THERMAL ZONE,L1S1-LOADING THERMAL ZONE EQUIPMENT LIST,,{103B6735-7422-43AC-A256-26DB2F146437},L1S1 LOADING OUTLET NODE,2,2
   Controlled Zone Inlet,1,L1S1-LOADING THERMAL ZONE,NODE 6,Undefined,N/A
   Controlled Zone Inlet,2,L1S1-LOADING THERMAL ZONE,L1S1 LOADING INLET NODE,L1S1 LOADING INLET NODE,N/A
   Controlled Zone Exhaust,1,L1S1-LOADING THERMAL ZONE,NODE 32
   Controlled Zone Exhaust,2,L1S1-LOADING THERMAL ZONE,NODE 5
 Controlled Zone,L1S1-MEN THERMAL ZONE,L1S1-MEN THERMAL ZONE EQUIPMENT LIST,,{34504FC6-ADBB-4B71-904A-3E5D6CDC9FC6},L1S1-MEN THERMAL ZONE RETURN AIR NODE,0,1
   Controlled Zone Exhaust,1,L1S1-MEN THERMAL ZONE,NODE 11
 Controlled Zone,L1S1-PREPAREDFOODS THERMAL ZONE,L1S1-PREPAREDFOODS THERMAL ZONE EQUIPMENT LIST,,{EE66A13F-DC31-4D07-8CD8-52CA47EACBBF},L1S1 PREPARED FOODS OUTLET NODE,1,0
   Controlled Zone Inlet,1,L1S1-PREPAREDFOODS THERMAL ZONE,L1S1 PREPARED FOODS INLET NODE,L1S1 PREPARED FOODS INLET NODE,N/A
 Controlled Zone,L1S1-PREPAREDFOODSPREP THERMAL ZONE,L1S1-PREPAREDFOODSPREP THERMAL ZONE EQUIPMENT LIST,,{A03D2D02-CDA0-4DE9-848A-47ED9DD92E72},L1S1 PREPAREDFOODSPREP OUTLET NODE,1,1
   Controlled Zone Inlet,1,L1S1-PREPAREDFOODSPREP THERMAL ZONE,L1S1 PREPAREDFOODSPREP INLET NODE,L1S1 PREPAREDFOODSPREP INLET NODE,N/A
   Controlled Zone Exhaust,1,L1S1-PREPAREDFOODSPREP THERMAL ZONE,NODE 13
 Controlled Zone,L1S1-PRODUCE THERMAL ZONE,L1S1-PRODUCE THERMAL ZONE EQUIPMENT LIST,,{746F60BC-0CC2-49DB-BE72-3FADDB846BC0},L1S1 PRODUCE OUTLET ZONE,1,0
   Controlled Zone Inlet,1,L1S1-PRODUCE THERMAL ZONE,L1S1 PRODUCE INLET ZONE,L1S1 PRODUCE INLET ZONE,N/A
 Controlled Zone,L1S1-SALESAISLE1 THERMAL ZONE,L1S1-SALESAISLE1 THERMAL ZONE EQUIPMENT LIST,,{CCD771EC-C56F-408F-8328-C0D533B75FCC},L1S1 SALESAISLE1 OUTLET NODE,1,0
   Controlled Zone Inlet,1,L1S1-SALESAISLE1 THERMAL ZONE,L1S1 SALESAISLE 1 INLET NODE,L1S1 SALESAISLE 1 INLET NODE,N/A
 Controlled Zone,L1S1-SALESNORTH THERMAL ZONE,L1S1-SALESNORTH THERMAL ZONE EQUIPMENT LIST,,{30312C58-5756-4294-9857-7ADBDBBAA85E},L1S1 SALESNORTH OUTLET NODE,1,0
   Controlled Zone Inlet,1,L1S1-SALESNORTH THERMAL ZONE,L1S1 SALES NORTH INLET NODE,L1S1 SALES NORTH INLET NODE,N/A
 Controlled Zone,L1S1-SALESSOUTH THERMAL ZONE,L1S1-SALESSOUTH THERMAL ZONE EQUIPMENT LIST,,{30BF6580-D1E9-4895-9C6B-179A8DE8FA66},L1S1 SALESSOUTH OUTLET NODE,1,0
   Controlled Zone Inlet,1,L1S1-SALESSOUTH THERMAL ZONE,L1S1 SALESSOUTH INLET NODE,L1S1 SALESSOUTH INLET NODE,N/A
 Controlled Zone,L1S1-SEAFOODSURFACE THERMAL ZONE,L1S1-SEAFOODSURFACE THERMAL ZONE EQUIPMENT LIST,,{64E59CC1-4073-485F-8501-58B4FCE57E98},L1S1-SEAFOODSURFACE THERMAL ZONE RETURN AIR NODE,0,1
   Controlled Zone Exhaust,1,L1S1-SEAFOODSURFACE THERMAL ZONE,NODE 21
 Controlled Zone,L1S1-SPECIALTYSERVICE THERMAL ZONE,L1S1-SPECIALTYSERVICE THERMAL ZONE EQUIPMENT LIST,,{0BA0FB4F-9F38-4FB5-8708-7A6A6C6601A8},L1S1 SPECIALTYSERVICE OUTLET NODE,1,0
   Controlled Zone Inlet,1,L1S1-SPECIALTYSERVICE THERMAL ZONE,L1S1 SPECIALTYSERVICE INLET NODE,L1S1 SPECIALTYSERVICE INLET NODE,N/A
 Controlled Zone,L1S1-WOMEN THERMAL ZONE,L1S1-WOMEN THERMAL ZONE EQUIPMENT LIST,,{F326C772-8563-40B7-B950-3677468BD5BD},L1S1-WOMEN THERMAL ZONE RETURN AIR NODE,0,1
   Controlled Zone Exhaust,1,L1S1-WOMEN THERMAL ZONE,NODE 23
 Controlled Zone,M-151-STAIRS1 THERMAL ZONE,M-151-STAIRS1 THERMAL ZONE EQUIPMENT LIST,,{1E98158C-95EF-4456-B770-79A2825B98B8},M-151-STAIRS1 THERMAL ZONE RETURN AIR NODE,0,1
   Controlled Zone Exhaust,1,M-151-STAIRS1 THERMAL ZONE,NODE 1
 Controlled Zone,M-152-MDF THERMAL ZONE,M-152-MDF THERMAL ZONE EQUIPMENT LIST,,{92C237F9-DC6D-423B-A8CF-3BB67899C64A},M-152-MDF THERMAL ZONE RETURN AIR NODE,1,1
   Controlled Zone Inlet,1,M-152-MDF THERMAL ZONE,NODE 10,Undefined,N/A
   Controlled Zone Exhaust,1,M-152-MDF THERMAL ZONE,NODE 9
 Controlled Zone,M-153-CASHROOM THERMAL ZONE,M-153-CASHROOM THERMAL ZONE EQUIPMENT LIST,,{6FA32808-F056-41CE-B191-95D5293D1573},M-153 CASHROOM OUTLET NODE,1,0
   Controlled Zone Inlet,1,M-153-CASHROOM THERMAL ZONE,M-153 CASHROOM INLET NODE,M-153 CASHROOM INLET NODE,N/A
 Controlled Zone,M-154-EXGOFFICE THERMAL ZONE,M-154-EXGOFFICE THERMAL ZONE EQUIPMENT LIST,,{6574FF8C-9A3F-461D-8217-E43FAFAAEC77},M-154 EXGOFFICE OUTLET NODE,1,0
   Controlled Zone Inlet,1,M-154-EXGOFFICE THERMAL ZONE,M-154 EXGOFFICE INLET NODE,M-154 EXGOFFICE INLET NODE,N/A
 Controlled Zone,M-155-EXGOFFICE THERMAL ZONE,M-155-EXGOFFICE THERMAL ZONE EQUIPMENT LIST,,{203908AB-4C7D-4A35-B1B5-A39F2F2989E0},M-155 EXGOFFICE OUTLET NODE,1,0
   Controlled Zone Inlet,1,M-155-EXGOFFICE THERMAL ZONE,M-155 EXGOFFICE INLET NODE,M-155 EXGOFFICE INLET NODE,N/A
 Controlled Zone,M-156-STLOFFICE THERMAL ZONE,M-156-STLOFFICE THERMAL ZONE EQUIPMENT LIST,,{D0FA65B8-410E-4218-BEF0-E73C7B0DE80A},M-156 STLOFFICE OUTLET NODE,1,0
   Controlled Zone Inlet,1,M-156-STLOFFICE THERMAL ZONE,M-156 STLOFFICE INLET NODE,M-156 STLOFFICE INLET NODE,N/A
 Controlled Zone,M-157-EXGOFFICE THERMAL ZONE,M-157-EXGOFFICE THERMAL ZONE EQUIPMENT LIST,,{51A1FAFF-C270-4643-BD90-1A7A4568523C},M-157 EXGOFFICE OUTLET NODE,1,0
   Controlled Zone Inlet,1,M-157-EXGOFFICE THERMAL ZONE,M-157 EXGOFFICE INLET NODE,M-157 EXGOFFICE INLET NODE,N/A
 Controlled Zone,M-158-BREAKROOM THERMAL ZONE,M-158-BREAKROOM THERMAL ZONE EQUIPMENT LIST,,{FAF17BD5-30F5-4D51-B095-BD258AE2E122},M-158 BREAKROOM OUTLET NODE,1,0
   Controlled Zone Inlet,1,M-158-BREAKROOM THERMAL ZONE,M-158 BREAKROOM INLET NODE,M-158 BREAKROOM INLET NODE,N/A
 Controlled Zone,M-161-MEN THERMAL ZONE,M-161-MEN THERMAL ZONE EQUIPMENT LIST,,{1066CCF3-E4F8-4A2E-85DF-006E6E53FFE0},M-161-MEN THERMAL ZONE RETURN AIR NODE,0,1
   Controlled Zone Exhaust,1,M-161-MEN THERMAL ZONE,NODE 25
 Controlled Zone,M-162-PREPROOM THERMAL ZONE,M-162-PREPROOM THERMAL ZONE EQUIPMENT LIST,,{636BB1E6-F18B-4A1B-BA83-A556697F8985},M-162 PREPROOM OUTLET NODE,1,0
   Controlled Zone Inlet,1,M-162-PREPROOM THERMAL ZONE,M-162 PREPROOM INLET NODE,M-162 PREPROOM INLET NODE,N/A
 Controlled Zone,M-163-MEATPREP THERMAL ZONE,M-163-MEATPREP THERMAL ZONE EQUIPMENT LIST,,{18AEAD9E-BB7E-41F9-8C40-B3C65D31B974},M-163 MEATPREP OUTLET NODE,1,0
   Controlled Zone Inlet,1,M-163-MEATPREP THERMAL ZONE,M-163 MEATPREP INLET NODE,M-163 MEATPREP INLET NODE,N/A
 Controlled Zone,M-164-MEATCOOLER THERMAL ZONE,M-164-MEATCOOLER EQUIPMENT LIST,,M-164-MEATCOOLER AIR NODE,M-164-MEATCOOLER RETURN AIR NODE,1,1
   Controlled Zone Inlet,1,M-164-MEATCOOLER THERMAL ZONE,M-164-MEATCOOLER INLET NODE,Undefined,N/A
   Controlled Zone Exhaust,1,M-164-MEATCOOLER THERMAL ZONE,M-164-MEATCOOLER EXHAUST NODE
 Controlled Zone,M-201-EXGSTORAGE THERMAL ZONE,M-201-EXGSTORAGE THERMAL ZONE EQUIPMENT LIST,,{D75308AE-A849-4DC3-9A33-AED2BB3AB141},M-201-EXGSTORAGE THERMAL ZONE RETURN AIR NODE,1,1
   Controlled Zone Inlet,1,M-201-EXGSTORAGE THERMAL ZONE,NODE 8,Undefined,N/A
   Controlled Zone Exhaust,1,M-201-EXGSTORAGE THERMAL ZONE,NODE 7
 Controlled Zone,M-EXGWOMEN THERMAL ZONE,M-EXGWOMEN THERMAL ZONE EQUIPMENT LIST,,{EA11E51F-2D8A-4831-AD02-FAAF9D4F4CC2},M-EXGWOMEN THERMAL ZONE RETURN AIR NODE,0,1
   Controlled Zone Exhaust,1,M-EXGWOMEN THERMAL ZONE,NODE 27
! ===============================================================
! <#Zone Equipment Lists>,<Number of Zone Equipment Lists>
 #Zone Equipment Lists,57
! <Zone Equipment List>,<Zone Equipment List Count>,<Zone Equipment List Name>,<Zone Name>,<Number of Components>
! <Zone Equipment Component>,<Component Count>,<Component Type>,<Component Name>,<Zone Name>,<Heating Priority>,<Cooling Priority>
 Zone Equipment List,2,L1-101-SALESAISLE1 NOTREFRIG EQUIPMENT LIST,L1-101-SALESAISLE1 THERMAL ZONE,1
   Zone Equipment Component,1,ZONEHVAC:UNITHEATER,L1-101-SALESAISLE1 NOTREFRIG ZONE HEATER,L1-101-SALESAISLE1 THERMAL ZONE,1,1
 Zone Equipment List,6,L1-101-SALESAISLE4 NOREFRIG EQUIPMENT LIST,L1-101-SALESAISLE4 THERMAL ZONE,1
   Zone Equipment Component,1,ZONEHVAC:UNITHEATER,L1-101-SALESAISLE4 NOREFRIG ZONE HEATER,L1-101-SALESAISLE4 THERMAL ZONE,1,1
 Zone Equipment List,14,L1-101-SALESCIRCULATION10 EQUIPMENT LIST,L1-101-SALESCIRCULATION10 THERMAL ZONE,1
   Zone Equipment Component,1,ZONEHVAC:UNITHEATER,L1-101-SALESCIRCULATION10 ZONE HEATER,L1-101-SALESCIRCULATION10 THERMAL ZONE,1,1
 Zone Equipment List,23,L1-101-MEATSEAFOOD EQUIPMENT LIST,L1-101-SALESCIRCULATIONMEATSEAFOOD THERMAL ZONE,1
   Zone Equipment Component,1,ZONEHVAC:UNITHEATER,L1-101-MEATSEAFOOD ZONE HEATER,L1-101-SALESCIRCULATIONMEATSEAFOOD THERMAL ZONE,1,1
 Zone Equipment List,24,L1-101-SALESAISLE1 EQUIPMENT LIST,L1-101-SALESREFRIGERATIONAISLE1 THERMAL ZONE,1
   Zone Equipment Component,1,ZONEHVAC:UNITHEATER,L1-101-SALESAISLE1 ZONE HEATER,L1-101-SALESREFRIGERATIONAISLE1 THERMAL ZONE,1,1
 Zone Equipment List,25,L1-101-SALESAISLE2 EQUIPMENT LIST,L1-101-SALESREFRIGERATIONAISLE2 THERMAL ZONE,1
   Zone Equipment Component,1,ZONEHVAC:UNITHEATER,L1-101-SALESAISLE2 ZONE HEATER,L1-101-SALESREFRIGERATIONAISLE2 THERMAL ZONE,1,1
 Zone Equipment List,26,L1-101-SALESAISLE3 EQUIPMENT LIST,L1-101-SALESREFRIGERATIONAISLE3 THERMAL ZONE,1
   Zone Equipment Component,1,ZONEHVAC:UNITHEATER,L1-101-SALESAISLE3 ZONE HEATER,L1-101-SALESREFRIGERATIONAISLE3 THERMAL ZONE,1,1
 Zone Equipment List,27,L1-101-SALESAISLE4 EQUIPMENT LIST,L1-101-SALESREFRIGERATIONAISLE4 THERMAL ZONE,1
   Zone Equipment Component,1,ZONEHVAC:UNITHEATER,L1-101-SALESAISLE4 ZONE HEATER,L1-101-SALESREFRIGERATIONAISLE4 THERMAL ZONE,1,1
 Zone Equipment List,28,L1-101-SALESAISLE5 EQUIPMENT LIST,L1-101-SALESREFRIGERATIONAISLE5 THERMAL ZONE,1
   Zone Equipment Component,1,ZONEHVAC:UNITHEATER,L1-101-SALESAISLE5 ZONE HEATER,L1-101-SALESREFRIGERATIONAISLE5 THERMAL ZONE,1,1
 Zone Equipment List,29,L1-101-SALESAISLE6 EQUIPMENT LIST,L1-101-SALESREFRIGERATIONAISLE6 THERMAL ZONE,1
   Zone Equipment Component,1,ZONEHVAC:UNITHEATER,L1-101-SALESAISLE6 ZONE HEATER,L1-101-SALESREFRIGERATIONAISLE6 THERMAL ZONE,1,1
 Zone Equipment List,30,L1-101-SALESAISLE7 EQUIPMENT LIST,L1-101-SALESREFRIGERATIONAISLE7 THERMAL ZONE,1
   Zone Equipment Component,1,ZONEHVAC:UNITHEATER,L1-101-SALESAISLE7 ZONE HEATER,L1-101-SALESREFRIGERATIONAISLE7 THERMAL ZONE,1,1
 Zone Equipment List,34,L1-101-SALESREACHINBEER EQUIPMENT LIST,L1-101-SALESREFRIGERATIONREACHINBEER THERMAL ZONE,1
   Zone Equipment Component,1,ZONEHVAC:UNITHEATER,L1-101-SALESREACHINBEER ZONE HEATER,L1-101-SALESREFRIGERATIONREACHINBEER THERMAL ZONE,1,1
 Zone Equipment List,35,L1-101-SALESREACHINBEVERAGES EQUIPMENT LIST,L1-101-SALESREFRIGERATIONREACHINBEVERAGES THERMAL ZONE,1
   Zone Equipment Component,1,ZONEHVAC:UNITHEATER,L1-101-SALESREACHINBEVERAGES ZONE HEATER,L1-101-SALESREFRIGERATIONREACHINBEVERAGES THERMAL ZONE,1,1
 Zone Equipment List,36,L1-101-SALESREACHINCHEES EQUIPMENT LIST,L1-101-SALESREFRIGERATIONREACHINCHEES THERMAL ZONE,1
   Zone Equipment Component,1,ZONEHVAC:UNITHEATER,L1-101-SALESREACHINCHEES ZONE HEATER,L1-101-SALESREFRIGERATIONREACHINCHEES THERMAL ZONE,1,1
 Zone Equipment List,37,L1-101-DAIRY1 EQUIPMENT LIST,L1-101-SALESREFRIGERATIONREACHINDAIRY1 THERMAL ZONE,1
   Zone Equipment Component,1,ZONEHVAC:UNITHEATER,L1-101-DAIRY1 ZONE HEATER,L1-101-SALESREFRIGERATIONREACHINDAIRY1 THERMAL ZONE,1,1
 Zone Equipment List,38,L1-101-DAIRY2 EQUIPMENT LIST,L1-101-SALESREFRIGERATIONREACHINDAIRY2 THERMAL ZONE,1
   Zone Equipment Component,1,ZONEHVAC:UNITHEATER,L1-101-DAIRY2 ZONE HEATER,L1-101-SALESREFRIGERATIONREACHINDAIRY2 THERMAL ZONE,1,1
 Zone Equipment List,39,L1-101-SALESREACHINDAIRY3 EQUIPMENT LIST,L1-101-SALESREFRIGERATIONREACHINDAIRY3 THERMAL ZONE,1
   Zone Equipment Component,1,ZONEHVAC:UNITHEATER,L1-101-SALESREACHINDAIRY3 ZONE HEATER,L1-101-SALESREFRIGERATIONREACHINDAIRY3 THERMAL ZONE,1,1
 Zone Equipment List,40,L1-101-SALESREACHINMEATSUB EQUIPMENT LIST,L1-101-SALESREFRIGERATIONREACHINMEATSUBSTITUTES THERMAL ZONE,1
   Zone Equipment Component,1,ZONEHVAC:UNITHEATER,L1-101-SALESREACHINMEATSUB ZONE HEATER,L1-101-SALESREFRIGERATIONREACHINMEATSUBSTITUTES THERMAL ZONE,1,1
 Zone Equipment List,41,L1-101-SALESREACHINPREPARED EQUIPMENT LIST,L1-101-SALESREFRIGERATIONREACHINPREPARED THERMAL ZONE,1
   Zone Equipment Component,1,ZONEHVAC:UNITHEATER,L1-101-SALESREACHINPREPARED ZONE HEATER,L1-101-SALESREFRIGERATIONREACHINPREPARED THERMAL ZONE,1,1
 Zone Equipment List,54,L1-104-PRODUCECOOLERS1 EQUIPMENT LIST,L1-104-PRODUCECOOLERS1 THERMAL ZONE,1
   Zone Equipment Component,1,ZONEHVAC:UNITHEATER,L1-104-PRODUCECOOLERS1 ZONE HEATER,L1-104-PRODUCECOOLERS1 THERMAL ZONE,1,1
 Zone Equipment List,55,L1-104-PRODUCECOOLERS2 EQUIPMENT LIST,L1-104-PRODUCECOOLERS2 THERMAL ZONE,1
   Zone Equipment Component,1,ZONEHVAC:UNITHEATER,L1-104-PRODUCECOOLERS2 ZONE HEATER,L1-104-PRODUCECOOLERS2 THERMAL ZONE,1,1
 Zone Equipment List,56,L1-104-PRODUCECOOLERS3 EQUIPMENT LIST,L1-104-PRODUCECOOLERS3 THERMAL ZONE,1
   Zone Equipment Component,1,ZONEHVAC:UNITHEATER,L1-104-PRODUCECOOLERS3 ZONE HEATER,L1-104-PRODUCECOOLERS3 THERMAL ZONE,1,1
 Zone Equipment List,59,L1-108-PRODUCECOOLER EQUIPMENT LIST,L1-108-PRODUCECOOLER THERMAL ZONE,1
   Zone Equipment Component,1,ZONEHVAC:UNITHEATER,L1-108-PRODUCECOOLER ZONE HEATER,L1-108-PRODUCECOOLER THERMAL ZONE,1,1
 Zone Equipment List,61,L1-110-PRODUCEPREP EQUIPMENT LIST,L1-110-PRODUCEPREP THERMAL ZONE,1
   Zone Equipment Component,1,ZONEHVAC:UNITHEATER,L1-110-PRODUCEPREP ZONE HEATER,L1-110-PRODUCEPREP THERMAL ZONE,1,1
 Zone Equipment List,62,L1-111-GROCERYFREEZER EQUIPMENT LIST,L1-111-GROCERYFREEZER THERMAL ZONE,1
   Zone Equipment Component,1,ZONEHVAC:UNITHEATER,L1-111-GROCERYFREEZER ZONE HEATER,L1-111-GROCERYFREEZER THERMAL ZONE,1,1
 Zone Equipment List,63,L1-112-DAIRYCOOLER EQUIPMENT LIST,L1-112-DAIRYCOOLER THERMAL ZONE,1
   Zone Equipment Component,1,ZONEHVAC:UNITHEATER,L1-112-DAIRYCOOLER ZONE HEATER,L1-112-DAIRYCOOLER THERMAL ZONE,1,1
[...]
 Non-Parent Node Connection,L1-101-SALESCIRCULATION10 EXHAUST NODE,FAN:CONSTANTVOLUME,L1-101-SALESCIRCULATION10 FAN,Inlet,1
 Non-Parent Node Connection,L1-101-SALESCIRCULATION10 FAN OUTLET NODE,FAN:CONSTANTVOLUME,L1-101-SALESCIRCULATION10 FAN,Outlet,1
 Non-Parent Node Connection,L1-101-SALESREACHINBEVERAGES EXHAUST NODE,FAN:CONSTANTVOLUME,L1-101-SALESREACHINBEVERAGES FAN,Inlet,1
 Non-Parent Node Connection,L1-101-SALESREACHINBEVERAGES FAN OUTLET NODE,FAN:CONSTANTVOLUME,L1-101-SALESREACHINBEVERAGES FAN,Outlet,1
 Non-Parent Node Connection,L1-101-SALESREACHINPREPARED EXHAUST NODE,FAN:CONSTANTVOLUME,L1-101-SALESREACHINPREPARED FAN,Inlet,1
 Non-Parent Node Connection,L1-101-SALESREACHINPREPARED FAN OUTLET NODE,FAN:CONSTANTVOLUME,L1-101-SALESREACHINPREPARED FAN,Outlet,1
 Non-Parent Node Connection,L1-101-SALESREACHINBEER EXHAUST NODE,FAN:CONSTANTVOLUME,L1-101-SALESREACHINBEER FAN,Inlet,1
 Non-Parent Node Connection,L1-101-SALESREACHINBEER FAN OUTLET NODE,FAN:CONSTANTVOLUME,L1-101-SALESREACHINBEER FAN,Outlet,1
 Non-Parent Node Connection,L1-101-SALESREACHINCHEES EXHAUST NODE,FAN:CONSTANTVOLUME,L1-101-SALESREACHINCHEES FAN,Inlet,1
 Non-Parent Node Connection,L1-101-SALESREACHINCHEES FAN OUTLET NODE,FAN:CONSTANTVOLUME,L1-101-SALESREACHINCHEES FAN,Outlet,1
 Non-Parent Node Connection,L1-119-DELICOOLER EXHAUST NODE,FAN:CONSTANTVOLUME,L1-119-DELICOOLER FAN,Inlet,1
 Non-Parent Node Connection,L1-119-DELICOOLER FAN OUTLET NODE,FAN:CONSTANTVOLUME,L1-119-DELICOOLER FAN,Outlet,1
 Non-Parent Node Connection,M-164-MEATCOOLER EXHAUST NODE,FAN:CONSTANTVOLUME,M-164-MEATCOOLER FAN,Inlet,1
 Non-Parent Node Connection,M-164-MEATCOOLER FAN OUTLET NODE,FAN:CONSTANTVOLUME,M-164-MEATCOOLER FAN,Outlet,1
 Non-Parent Node Connection,NODE 3,FAN:ZONEEXHAUST,L1S1 COFFEE EXHAUST FAN,Inlet,1
 Non-Parent Node Connection,NODE 4,FAN:ZONEEXHAUST,L1S1 COFFEE EXHAUST FAN,Outlet,1
 Non-Parent Node Connection,NODE 32,FAN:ZONEEXHAUST,L1S1 LOADING  EXHAUST FAN,Inlet,1
 Non-Parent Node Connection,NODE 33,FAN:ZONEEXHAUST,L1S1 LOADING  EXHAUST FAN,Outlet,1
 Non-Parent Node Connection,NODE 11,FAN:ZONEEXHAUST,L1S1 MENS EXHAUST FAN,Inlet,1
 Non-Parent Node Connection,NODE 12,FAN:ZONEEXHAUST,L1S1 MENS EXHAUST FAN,Outlet,1
 Non-Parent Node Connection,NODE 13,FAN:ZONEEXHAUST,L1S1 PREPARED FOODS PREP EXHAUST FAN,Inlet,1
 Non-Parent Node Connection,NODE 20,FAN:ZONEEXHAUST,L1S1 PREPARED FOODS PREP EXHAUST FAN,Outlet,1
 Non-Parent Node Connection,NODE 21,FAN:ZONEEXHAUST,L1S1 SEAFOOD SURFACE EXHAUST FAN,Inlet,1
 Non-Parent Node Connection,NODE 22,FAN:ZONEEXHAUST,L1S1 SEAFOOD SURFACE EXHAUST FAN,Outlet,1
 Non-Parent Node Connection,NODE 23,FAN:ZONEEXHAUST,L1S1 WOMEN EXHAUST FAN,Inlet,1
 Non-Parent Node Connection,NODE 24,FAN:ZONEEXHAUST,L1S1 WOMEN EXHAUST FAN,Outlet,1
 Non-Parent Node Connection,NODE 1,FAN:ZONEEXHAUST,M-151 STAIRS EXHAUST FAN,Inlet,1
 Non-Parent Node Connection,NODE 2,FAN:ZONEEXHAUST,M-151 STAIRS EXHAUST FAN,Outlet,1
 Non-Parent Node Connection,NODE 25,FAN:ZONEEXHAUST,M 161 MEN EXHAUST FAN,Inlet,1
 Non-Parent Node Connection,NODE 26,FAN:ZONEEXHAUST,M 161 MEN EXHAUST FAN,Outlet,1
 Non-Parent Node Connection,NODE 27,FAN:ZONEEXHAUST,M-EXGWOMEN EXHAUST FAN,Inlet,1
 Non-Parent Node Connection,NODE 28,FAN:ZONEEXHAUST,M-EXGWOMEN EXHAUST FAN,Outlet,1
 Non-Parent Node Connection,M-152 MDF ROOM DAC FAN OUTLET NODE,COIL:HEATING:ELECTRIC,PTHP ELEC HTG BACKUP COIL,Inlet,1
 Non-Parent Node Connection,NODE 10,COIL:HEATING:ELECTRIC,PTHP ELEC HTG BACKUP COIL,Outlet,1
 Non-Parent Node Connection,L1S1 LOADING UNIT HEATER GAS FAN OUTLET NODE,COIL:HEATING:FUEL,UNIT HEATER GAS HTG COIL,Inlet,1
 Non-Parent Node Connection,NODE 6,COIL:HEATING:FUEL,UNIT HEATER GAS HTG COIL,Outlet,1
 Non-Parent Node Connection,M201 EXGSTORAGE UNIT HEATER GAS FAN OUTLET NODE,COIL:HEATING:FUEL,UNIT HEATER GAS HTG COIL 1,Inlet,1
 Non-Parent Node Connection,NODE 8,COIL:HEATING:FUEL,UNIT HEATER GAS HTG COIL 1,Outlet,1
 Non-Parent Node Connection,BOH PRE-FURNACE NODE,COIL:HEATING:FUEL,COIL HEATING GAS 3,Inlet,1
 Non-Parent Node Connection,BOH PRE-FAN NODE,COIL:HEATING:FUEL,COIL HEATING GAS 3,Outlet,1
 Non-Parent Node Connection,BOH PRE-FAN NODE,COIL:HEATING:FUEL,COIL HEATING GAS 3,Sensor,1
 Non-Parent Node Connection,PACU EAST PREHEAT NODE,COIL:HEATING:FUEL,PACU EAST COIL HEATING GAS,Inlet,1
 Non-Parent Node Connection,PACU EAST PRE-FAN NODE,COIL:HEATING:FUEL,PACU EAST COIL HEATING GAS,Outlet,1
 Non-Parent Node Connection,PACU EAST PRE-FAN NODE,COIL:HEATING:FUEL,PACU EAST COIL HEATING GAS,Sensor,1
 Non-Parent Node Connection,PACU PRE-HEAT NODE,COIL:HEATING:FUEL,PACU WEST COIL HEATING GAS,Inlet,1
 Non-Parent Node Connection,PACU WEST PRE-FAN NODE,COIL:HEATING:FUEL,PACU WEST COIL HEATING GAS,Outlet,1
 Non-Parent Node Connection,PACU WEST PRE-FAN NODE,COIL:HEATING:FUEL,PACU WEST COIL HEATING GAS,Sensor,1
 Non-Parent Node Connection,L1-101-DAIRY1 FAN OUTLET NODE,COIL:HEATING:FUEL,L1-101-DAIRY1 GAS HTG COIL,Inlet,1
 Non-Parent Node Connection,L1-101-DAIRY1 INLET NODE,COIL:HEATING:FUEL,L1-101-DAIRY1 GAS HTG COIL,Outlet,1
 Non-Parent Node Connection,L1-101-DAIRY2 FAN OUTLET NODE,COIL:HEATING:FUEL,L1-101-DAIRY2 GAS HTG COIL,Inlet,1
 Non-Parent Node Connection,L1-101-DAIRY2 INLET NODE,COIL:HEATING:FUEL,L1-101-DAIRY2 GAS HTG COIL,Outlet,1
 Non-Parent Node Connection,L1-101-MEATSEAFOOD FAN OUTLET NODE,COIL:HEATING:FUEL,L1-101-MEATSEAFOOD GAS HTG COIL,Inlet,1
 Non-Parent Node Connection,L1-101-MEATSEAFOOD INLET NODE,COIL:HEATING:FUEL,L1-101-MEATSEAFOOD GAS HTG COIL,Outlet,1
 Non-Parent Node Connection,L1-111-GROCERYFREEZER FAN OUTLET NODE,COIL:HEATING:FUEL,L1-111-GROCERYFREEZER GAS HTG COIL,Inlet,1
 Non-Parent Node Connection,L1-111-GROCERYFREEZER INLET NODE,COIL:HEATING:FUEL,L1-111-GROCERYFREEZER GAS HTG COIL,Outlet,1
 Non-Parent Node Connection,L1-110-PRODUCEPREP FAN OUTLET NODE,COIL:HEATING:FUEL,L1-110-PRODUCEPREP GAS HTG COIL,Inlet,1
 Non-Parent Node Connection,L1-110-PRODUCEPREP INLET NODE,COIL:HEATING:FUEL,L1-110-PRODUCEPREP GAS HTG COIL,Outlet,1
 Non-Parent Node Connection,L1-101-SALESAISLE1 FAN OUTLET NODE,COIL:HEATING:FUEL,L1-101-SALESAISLE1 GAS HTG COIL,Inlet,1
 Non-Parent Node Connection,L1-101-SALESAISLE1 INLET NODE,COIL:HEATING:FUEL,L1-101-SALESAISLE1 GAS HTG COIL,Outlet,1
 Non-Parent Node Connection,L1-101-SALESAISLE2 FAN OUTLET NODE,COIL:HEATING:FUEL,L1-101-SALESAISLE2 GAS HTG COIL,Inlet,1
 Non-Parent Node Connection,L1-101-SALESAISLE2 INLET NODE,COIL:HEATING:FUEL,L1-101-SALESAISLE2 GAS HTG COIL,Outlet,1
 Non-Parent Node Connection,L1-101-SALESAISLE3 FAN OUTLET NODE,COIL:HEATING:FUEL,L1-101-SALESAISLE3 GAS HTG COIL,Inlet,1
 Non-Parent Node Connection,L1-101-SALESAISLE3 INLET NODE,COIL:HEATING:FUEL,L1-101-SALESAISLE3 GAS HTG COIL,Outlet,1
 Non-Parent Node Connection,L1-101-SALESAISLE4 FAN OUTLET NODE,COIL:HEATING:FUEL,L1-101-SALESAISLE4 GAS HTG COIL,Inlet,1
 Non-Parent Node Connection,L1-101-SALESAISLE4 INLET NODE,COIL:HEATING:FUEL,L1-101-SALESAISLE4 GAS HTG COIL,Outlet,1
 Non-Parent Node Connection,L1-101-SALESAISLE5 FAN OUTLET NODE,COIL:HEATING:FUEL,L1-101-SALESAISLE5 GAS HTG COIL,Inlet,1
 Non-Parent Node Connection,L1-101-SALESAISLE5 INLET NODE,COIL:HEATING:FUEL,L1-101-SALESAISLE5 GAS HTG COIL,Outlet,1
 Non-Parent Node Connection,L1-101-SALESAISLE6 FAN OUTLET NODE,COIL:HEATING:FUEL,L1-101-SALESAISLE6 GAS HTG COIL,Inlet,1
 Non-Parent Node Connection,L1-101-SALESAISLE6 INLET NODE,COIL:HEATING:FUEL,L1-101-SALESAISLE6 GAS HTG COIL,Outlet,1
 Non-Parent Node Connection,L1-101-SALESAISLE7 FAN OUTLET NODE,COIL:HEATING:FUEL,L1-101-SALESAISLE7 GAS HTG COIL,Inlet,1
 Non-Parent Node Connection,L1-101-SALESAISLE7 INLET NODE,COIL:HEATING:FUEL,L1-101-SALESAISLE7 GAS HTG COIL,Outlet,1
 Non-Parent Node Connection,L1-115-MEATSEAFOOD FAN OUTLET NODE,COIL:HEATING:FUEL,L1-115-MEATSEAFOOD GAS HTG COIL,Inlet,1
 Non-Parent Node Connection,L1-115-MEATSEAFOOD INLET NODE,COIL:HEATING:FUEL,L1-115-MEATSEAFOOD GAS HTG COIL,Outlet,1
 Non-Parent Node Connection,L1-112-DAIRYCOOLER FAN OUTLET NODE,COIL:HEATING:FUEL,L1-112-DAIRYCOOLER GAS HTG COIL,Inlet,1
 Non-Parent Node Connection,L1-112-DAIRYCOOLER INLET NODE,COIL:HEATING:FUEL,L1-112-DAIRYCOOLER GAS HTG COIL,Outlet,1
 Non-Parent Node Connection,L1-101-SALESREACHINDAIRY3 FAN OUTLET NODE,COIL:HEATING:FUEL,L1-101-SALESREACHINDAIRY3 GAS HTG COIL,Inlet,1
 Non-Parent Node Connection,L1-101-SALESREACHINDAIRY3 INLET NODE,COIL:HEATING:FUEL,L1-101-SALESREACHINDAIRY3 GAS HTG COIL,Outlet,1
 Non-Parent Node Connection,L1-101-SALESAISLE1 NOTREFRIG FAN OUTLET NODE,COIL:HEATING:FUEL,L1-101-SALESAISLE1 NOTREFRIG GAS HTG COIL,Inlet,1
 Non-Parent Node Connection,L1-101-SALESAISLE1 NOTREFRIG INLET NODE,COIL:HEATING:FUEL,L1-101-SALESAISLE1 NOTREFRIG GAS HTG COIL,Outlet,1
 Non-Parent Node Connection,L1-101-SALESREACHINMEATSUB FAN OUTLET NODE,COIL:HEATING:FUEL,L1-101-SALESREACHINMEATSUB GAS HTG COIL,Inlet,1
 Non-Parent Node Connection,L1-101-SALESREACHINMEATSUB INLET NODE,COIL:HEATING:FUEL,L1-101-SALESREACHINMEATSUB GAS HTG COIL,Outlet,1
 Non-Parent Node Connection,L1-108-PRODUCECOOLER FAN OUTLET NODE,COIL:HEATING:FUEL,L1-108-PRODUCECOOLER GAS HTG COIL,Inlet,1
 Non-Parent Node Connection,L1-108-PRODUCECOOLER INLET NODE,COIL:HEATING:FUEL,L1-108-PRODUCECOOLER GAS HTG COIL,Outlet,1
 Non-Parent Node Connection,L1-104-PRODUCECOOLERS1 FAN OUTLET NODE,COIL:HEATING:FUEL,L1-104-PRODUCECOOLERS1 GAS HTG COIL,Inlet,1
 Non-Parent Node Connection,L1-104-PRODUCECOOLERS1 INLET NODE,COIL:HEATING:FUEL,L1-104-PRODUCECOOLERS1 GAS HTG COIL,Outlet,1
 Non-Parent Node Connection,L1-104-PRODUCECOOLERS2 FAN OUTLET NODE,COIL:HEATING:FUEL,L1-104-PRODUCECOOLERS2 GAS HTG COIL,Inlet,1
 Non-Parent Node Connection,L1-104-PRODUCECOOLERS2 INLET NODE,COIL:HEATING:FUEL,L1-104-PRODUCECOOLERS2 GAS HTG COIL,Outlet,1
 Non-Parent Node Connection,L1-104-PRODUCECOOLERS3 FAN OUTLET NODE,COIL:HEATING:FUEL,L1-104-PRODUCECOOLERS3 GAS HTG COIL,Inlet,1
 Non-Parent Node Connection,L1-104-PRODUCECOOLERS3 INLET NODE,COIL:HEATING:FUEL,L1-104-PRODUCECOOLERS3 GAS HTG COIL,Outlet,1
 Non-Parent Node Connection,L1-101-SALESAISLE4 NOREFRIG FAN OUTLET NODE,COIL:HEATING:FUEL,L1-101-SALESAISLE4 NOREFRIG GAS HTG COIL,Inlet,1
 Non-Parent Node Connection,L1-101-SALESAISLE4 NOREFRIG INLET NODE,COIL:HEATING:FUEL,L1-101-SALESAISLE4 NOREFRIG GAS HTG COIL,Outlet,1
 Non-Parent Node Connection,L1-125-PREPAREDFOODS1 FAN OUTLET NODE,COIL:HEATING:FUEL,L1-125-PREPAREDFOODS1 GAS HTG COIL,Inlet,1
 Non-Parent Node Connection,L1-125-PREPAREDFOODS1 INLET NODE,COIL:HEATING:FUEL,L1-125-PREPAREDFOODS1 GAS HTG COIL,Outlet,1
 Non-Parent Node Connection,L1-124-SPECIALTYSERVICE FAN OUTLET NODE,COIL:HEATING:FUEL,L1-124-SPECIALTYSERVICE GAS HTG COIL,Inlet,1
 Non-Parent Node Connection,L1-124-SPECIALTYSERVICE INLET NODE,COIL:HEATING:FUEL,L1-124-SPECIALTYSERVICE GAS HTG COIL,Outlet,1
 Non-Parent Node Connection,L1-101-SALESCIRCULATION10 FAN OUTLET NODE,COIL:HEATING:FUEL,L1-101-SALESCIRCULATION10 GAS HTG COIL,Inlet,1
 Non-Parent Node Connection,L1-101-SALESCIRCULATION10 INLET NODE,COIL:HEATING:FUEL,L1-101-SALESCIRCULATION10 GAS HTG COIL,Outlet,1
 Non-Parent Node Connection,L1-101-SALESREACHINBEVERAGES FAN OUTLET NODE,COIL:HEATING:FUEL,L1-101-SALESREACHINBEVERAGES GAS HTG COIL,Inlet,1
 Non-Parent Node Connection,L1-101-SALESREACHINBEVERAGES INLET NODE,COIL:HEATING:FUEL,L1-101-SALESREACHINBEVERAGES GAS HTG COIL,Outlet,1
 Non-Parent Node Connection,L1-101-SALESREACHINPREPARED FAN OUTLET NODE,COIL:HEATING:FUEL,L1-101-SALESREACHINPREPARED GAS HTG COIL,Inlet,1
 Non-Parent Node Connection,L1-101-SALESREACHINPREPARED INLET NODE,COIL:HEATING:FUEL,L1-101-SALESREACHINPREPARED GAS HTG COIL,Outlet,1
 Non-Parent Node Connection,L1-101-SALESREACHINCHEES FAN OUTLET NODE,COIL:HEATING:FUEL,L1-101-SALESREACHINCHEES GAS HTG COIL,Inlet,1
 Non-Parent Node Connection,L1-101-SALESREACHINCHEES INLET NODE,COIL:HEATING:FUEL,L1-101-SALESREACHINCHEES GAS HTG COIL,Outlet,1
 Non-Parent Node Connection,L1-101-SALESREACHINBEER FAN OUTLET NODE,COIL:HEATING:FUEL,L1-101-SALESREACHINBEER GAS HTG COIL,Inlet,1
 Non-Parent Node Connection,L1-101-SALESREACHINBEER INLET NODE,COIL:HEATING:FUEL,L1-101-SALESREACHINBEER GAS HTG COIL,Outlet,1
 Non-Parent Node Connection,L1-119-DELICOOLER FAN OUTLET NODE,COIL:HEATING:FUEL,L1-119-DELICOOLER GAS HTG COIL,Inlet,1
 Non-Parent Node Connection,L1-119-DELICOOLER INLET NODE,COIL:HEATING:FUEL,L1-119-DELICOOLER GAS HTG COIL,Outlet,1
 Non-Parent Node Connection,M-164-MEATCOOLER FAN OUTLET NODE,COIL:HEATING:FUEL,M-164-MEATCOOLER GAS HTG COIL,Inlet,1
 Non-Parent Node Connection,M-164-MEATCOOLER INLET NODE,COIL:HEATING:FUEL,M-164-MEATCOOLER GAS HTG COIL,Outlet,1
 Non-Parent Node Connection,L1S1 CHECKOUT INLET NODE,AIRTERMINAL:SINGLEDUCT:UNCONTROLLED,L1S1 CHECKOUT TERMINAL,Outlet,1
 Non-Parent Node Connection,L1S1 LOADING INLET NODE,AIRTERMINAL:SINGLEDUCT:UNCONTROLLED,L1S1 LOADING TERMINAL,Outlet,1
 Non-Parent Node Connection,L1S1 PREPARED FOODS INLET NODE,AIRTERMINAL:SINGLEDUCT:UNCONTROLLED,L1S1 PREPARED FOODS TERMINAL,Outlet,1
 Non-Parent Node Connection,L1S1 PREPAREDFOODSPREP INLET NODE,AIRTERMINAL:SINGLEDUCT:UNCONTROLLED,L1S1 PREPARED FOODS PREP TERMINAL,Outlet,1
 Non-Parent Node Connection,L1S1 PRODUCE INLET ZONE,AIRTERMINAL:SINGLEDUCT:UNCONTROLLED,L1S1 PRODUCE TERMINAL,Outlet,1
 Non-Parent Node Connection,L1S1 SALESAISLE 1 INLET NODE,AIRTERMINAL:SINGLEDUCT:UNCONTROLLED,L1S1 SALES AISLE 1 TERMINAL,Outlet,1
 Non-Parent Node Connection,L1S1 SALES NORTH INLET NODE,AIRTERMINAL:SINGLEDUCT:UNCONTROLLED,L1S1 SALES NORTH TERMINAL,Outlet,1
 Non-Parent Node Connection,L1S1 SALESSOUTH INLET NODE,AIRTERMINAL:SINGLEDUCT:UNCONTROLLED,L1S1 SALES SOUTH TERMINAL,Outlet,1
 Non-Parent Node Connection,L1S1 SPECIALTYSERVICE INLET NODE,AIRTERMINAL:SINGLEDUCT:UNCONTROLLED,L1S1 SPECIALTY SERVICES TERMINAL,Outlet,1
 Non-Parent Node Connection,M-153 CASHROOM INLET NODE,AIRTERMINAL:SINGLEDUCT:UNCONTROLLED,M-153 CASH ROOM TERMINAL,Outlet,1
 Non-Parent Node Connection,M-154 EXGOFFICE INLET NODE,AIRTERMINAL:SINGLEDUCT:UNCONTROLLED,M-154 EXGOFFICE TERMINAL,Outlet,1
 Non-Parent Node Connection,M-155 EXGOFFICE INLET NODE,AIRTERMINAL:SINGLEDUCT:UNCONTROLLED,M-155 EXGOFFICE TERMINAL,Outlet,1
 Non-Parent Node Connection,M-156 STLOFFICE INLET NODE,AIRTERMINAL:SINGLEDUCT:UNCONTROLLED,M-156 STLOFFICE TERMINAL,Outlet,1
 Non-Parent Node Connection,M-157 EXGOFFICE INLET NODE,AIRTERMINAL:SINGLEDUCT:UNCONTROLLED,M-157 EXGOFFICE TERMINAL,Outlet,1
 Non-Parent Node Connection,M-158 BREAKROOM INLET NODE,AIRTERMINAL:SINGLEDUCT:UNCONTROLLED,M-158 BREAK ROOM TERMINAL,Outlet,1
 Non-Parent Node Connection,M-162 PREPROOM INLET NODE,AIRTERMINAL:SINGLEDUCT:UNCONTROLLED,M-162 PREPROOM TERMINAL,Outlet,1
 Non-Parent Node Connection,M-163 MEATPREP INLET NODE,AIRTERMINAL:SINGLEDUCT:UNCONTROLLED,M-163 PREPROOM TERMINAL,Outlet,1
 Non-Parent Node Connection,M-152 MDF ROOM DAC MIXED AIR NODE,OUTDOORAIR:MIXER,M-152 MDF ROOM DAC OA MIXER,Outlet,1
 Non-Parent Node Connection,M-152 MDF ROOM DAC OA NODE,OUTDOORAIR:MIXER,M-152 MDF ROOM DAC OA MIXER,Inlet,1
 Non-Parent Node Connection,M-152 MDF ROOM DAC RELIEF AIR NODE,OUTDOORAIR:MIXER,M-152 MDF ROOM DAC OA MIXER,ReliefAir,1
 Non-Parent Node Connection,NODE 9,OUTDOORAIR:MIXER,M-152 MDF ROOM DAC OA MIXER,Inlet,1
 Non-Parent Node Connection,BOH PRE-FURNACE NODE,OUTDOORAIR:MIXER,AIR LOOP HVAC OUTDOOR AIR SYSTEM 3 OUTDOOR AIR MIXER,Outlet,1
 Non-Parent Node Connection,BOH OA INLET NODE,OUTDOORAIR:MIXER,AIR LOOP HVAC OUTDOOR AIR SYSTEM 3 OUTDOOR AIR MIXER,Inlet,1
 Non-Parent Node Connection,BOH OA OUTLET NODE,OUTDOORAIR:MIXER,AIR LOOP HVAC OUTDOOR AIR SYSTEM 3 OUTDOOR AIR MIXER,ReliefAir,1
 Non-Parent Node Connection,BOH POST-DEMAND NODE 2,OUTDOORAIR:MIXER,AIR LOOP HVAC OUTDOOR AIR SYSTEM 3 OUTDOOR AIR MIXER,Inlet,1
 Non-Parent Node Connection,PACU EAST PRE-COIL NODE,OUTDOORAIR:MIXER,AIR LOOP HVAC OUTDOOR AIR SYSTEM 2 OUTDOOR AIR MIXER,Outlet,1
 Non-Parent Node Connection,PACU EAST OH INLET NODE,OUTDOORAIR:MIXER,AIR LOOP HVAC OUTDOOR AIR SYSTEM 2 OUTDOOR AIR MIXER,Inlet,1
 Non-Parent Node Connection,PACU EAST OA OUTLET NODE,OUTDOORAIR:MIXER,AIR LOOP HVAC OUTDOOR AIR SYSTEM 2 OUTDOOR AIR MIXER,ReliefAir,1
 Non-Parent Node Connection,PACU EAST POST DEMAND NODE 2,OUTDOORAIR:MIXER,AIR LOOP HVAC OUTDOOR AIR SYSTEM 2 OUTDOOR AIR MIXER,Inlet,1
 Non-Parent Node Connection,PACU WEST PRE COIL NODE,OUTDOORAIR:MIXER,AIR LOOP HVAC OUTDOOR AIR SYSTEM 1 OUTDOOR AIR MIXER,Outlet,1
 Non-Parent Node Connection,PACU WEST OH INLET NODE,OUTDOORAIR:MIXER,AIR LOOP HVAC OUTDOOR AIR SYSTEM 1 OUTDOOR AIR MIXER,Inlet,1
 Non-Parent Node Connection,PACU WEST OH OUTLET NODE,OUTDOORAIR:MIXER,AIR LOOP HVAC OUTDOOR AIR SYSTEM 1 OUTDOOR AIR MIXER,ReliefAir,1
 Non-Parent Node Connection,PACU WEST POST DEMAND NODE 2,OUTDOORAIR:MIXER,AIR LOOP HVAC OUTDOOR AIR SYSTEM 1 OUTDOOR AIR MIXER,Inlet,1
 Non-Parent Node Connection,M-152 MDF ROOM DAC MIXED AIR NODE,COIL:COOLING:DX:SINGLESPEED,PTHP 1 SPD DX CLG COIL,Inlet,1
 Non-Parent Node Connection,M-152 MDF ROOM DAC COOLING COIL OUTLET NODE,COIL:COOLING:DX:SINGLESPEED,PTHP 1 SPD DX CLG COIL,Outlet,1
 Non-Parent Node Connection,PACU EAST PRE-COIL NODE,COIL:COOLING:DX:SINGLESPEED,PACU WEST 1 SPD DX CLG COIL,Inlet,1
 Non-Parent Node Connection,PACU EAST PREHEAT NODE,COIL:COOLING:DX:SINGLESPEED,PACU WEST 1 SPD DX CLG COIL,Outlet,1
 Non-Parent Node Connection,PACU WEST PRE COIL NODE,COIL:COOLING:DX:SINGLESPEED,PACU EAST 1 SPD DX CLG COIL,Inlet,1
 Non-Parent Node Connection,PACU PRE-HEAT NODE,COIL:COOLING:DX:SINGLESPEED,PACU EAST 1 SPD DX CLG COIL,Outlet,1
 Non-Parent Node Connection,M-152 MDF ROOM DAC COOLING COIL OUTLET NODE,COIL:HEATING:DX:SINGLESPEED,PTHP 1 SPD DX HTG COIL,Inlet,1
 Non-Parent Node Connection,M-152 MDF ROOM DAC HEATING COIL OUTLET NODE,COIL:HEATING:DX:SINGLESPEED,PTHP 1 SPD DX HTG COIL,Outlet,1
 Non-Parent Node Connection,BOH POST-DEMAND NODE,AIRLOOPHVAC:ZONEMIXER,AIR LOOP HVAC ZONE MIXER 3,Outlet,1
 Non-Parent Node Connection,M-163 MEATPREP OUTLET NODE,AIRLOOPHVAC:ZONEMIXER,AIR LOOP HVAC ZONE MIXER 3,Inlet,1
 Non-Parent Node Connection,M-162 PREPROOM OUTLET NODE,AIRLOOPHVAC:ZONEMIXER,AIR LOOP HVAC ZONE MIXER 3,Inlet,1
 Non-Parent Node Connection,M-158 BREAKROOM OUTLET NODE,AIRLOOPHVAC:ZONEMIXER,AIR LOOP HVAC ZONE MIXER 3,Inlet,1
 Non-Parent Node Connection,M-157 EXGOFFICE OUTLET NODE,AIRLOOPHVAC:ZONEMIXER,AIR LOOP HVAC ZONE MIXER 3,Inlet,1
 Non-Parent Node Connection,M-156 STLOFFICE OUTLET NODE,AIRLOOPHVAC:ZONEMIXER,AIR LOOP HVAC ZONE MIXER 3,Inlet,1
 Non-Parent Node Connection,M-155 EXGOFFICE OUTLET NODE,AIRLOOPHVAC:ZONEMIXER,AIR LOOP HVAC ZONE MIXER 3,Inlet,1
 Non-Parent Node Connection,M-154 EXGOFFICE OUTLET NODE,AIRLOOPHVAC:ZONEMIXER,AIR LOOP HVAC ZONE MIXER 3,Inlet,1
 Non-Parent Node Connection,M-153 CASHROOM OUTLET NODE,AIRLOOPHVAC:ZONEMIXER,AIR LOOP HVAC ZONE MIXER 3,Inlet,1
 Non-Parent Node Connection,PACU EAST POST DEMAND NODE,AIRLOOPHVAC:ZONEMIXER,AIR LOOP HVAC ZONE MIXER 2,Outlet,1
 Non-Parent Node Connection,L1S1 PREPARED FOODS OUTLET NODE,AIRLOOPHVAC:ZONEMIXER,AIR LOOP HVAC ZONE MIXER 2,Inlet,1
 Non-Parent Node Connection,L1S1 PREPAREDFOODSPREP OUTLET NODE,AIRLOOPHVAC:ZONEMIXER,AIR LOOP HVAC ZONE MIXER 2,Inlet,1
 Non-Parent Node Connection,L1S1 SPECIALTYSERVICE OUTLET NODE,AIRLOOPHVAC:ZONEMIXER,AIR LOOP HVAC ZONE MIXER 2,Inlet,1
 Non-Parent Node Connection,L1S1 CHECKOUT OUTLET NODE,AIRLOOPHVAC:ZONEMIXER,AIR LOOP HVAC ZONE MIXER 2,Inlet,1
 Non-Parent Node Connection,L1S1 SALESSOUTH OUTLET NODE,AIRLOOPHVAC:ZONEMIXER,AIR LOOP HVAC ZONE MIXER 2,Inlet,1
 Non-Parent Node Connection,PACU WEST POST DEMAND NODE,AIRLOOPHVAC:ZONEMIXER,AIR LOOP HVAC ZONE MIXER 1,Outlet,1
 Non-Parent Node Connection,L1S1 PRODUCE OUTLET ZONE,AIRLOOPHVAC:ZONEMIXER,AIR LOOP HVAC ZONE MIXER 1,Inlet,1
 Non-Parent Node Connection,L1S1 SALESAISLE1 OUTLET NODE,AIRLOOPHVAC:ZONEMIXER,AIR LOOP HVAC ZONE MIXER 1,Inlet,1
 Non-Parent Node Connection,L1S1 SALESNORTH OUTLET NODE,AIRLOOPHVAC:ZONEMIXER,AIR LOOP HVAC ZONE MIXER 1,Inlet,1
 Non-Parent Node Connection,L1S1 LOADING OUTLET NODE,AIRLOOPHVAC:ZONEMIXER,AIR LOOP HVAC ZONE MIXER 1,Inlet,1
 No