  0
SECTION
  2
ENTITIES
999
DXF created from EnergyPlus
999
Program Version,EnergyPlus, Version 8.6.0-198c6a3cff, YMD=2016.10.18 16:27
999
Polygon Action,ThickPolyline
999
Color Scheme,Default
999
Text - True North
  0
TEXT
  8
1
  6
Continuous
 62
  3
 10
      -53.40380
 20
      -27.24290
 30
        0.10000
 40
 .25
  1
True North
 41
 0.0
  7
MONOTXT
210
0.0
220
0.0
230
1.0
999
Text - Building Title
  0
TEXT
  8
1
  6
Continuous
 62
  3
 10
      -56.40380
 20
      -31.24290
 30
        0.10000
 40
 .4
  1
Building - Ref Bldg SuperMarket New2004_v1.3_5.0
 41
 0.0
  7
MONOTXT
210
0.0
220
0.0
230
1.0
999
North Arrow Stem
  0
3DFACE
  8
1
 62
  3
 10
      -52.40380
 20
      -27.24290
 30
        0.10000
 11
      -52.40380
 21
      -27.24290
 31
        0.00000
 12
      -52.40380
 22
      -30.24290
 32
        0.00000
 13
      -52.40380
 23
      -30.24290
 33
        0.10000
999
North Arrow Head 1
  0
3DFACE
  8
1
 62
  3
 10
      -52.40380
 20
      -27.24290
 30
        0.10000
 11
      -52.40380
 21
      -27.24290
 31
        0.00000
 12
      -52.90380
 22
      -28.10892
 32
        0.00000
 13
      -52.90380
 23
      -28.10892
 33
        0.10000
999
North Arrow Head 2
  0
3DFACE
  8
1
 62
  3
 10
      -52.40380
 20
      -27.24290
 30
        0.10000
 11
      -52.40380
 21
      -27.24290
 31
        0.00000
 12
      -51.90380
 22
      -28.10892
 32
        0.00000
 13
      -51.90380
 23
      -28.10892
 33
        0.10000
999
North Arrow Side 1
  0
3DFACE
  8
1
 62
  3
 10
      -52.90380
 20
      -25.74290
 30
        0.10000
 11
      -52.90380
 21
      -25.74290
 31
        0.00000
 12
      -52.90380
 22
      -26.74290
 32
        0.00000
 13
      -52.90380
 23
      -26.74290
 33
        0.10000
999
North Arrow Side 2
  0
3DFACE
  8
1
 62
  3
 10
      -52.90380
 20
      -25.74290
 30
        0.10000
 11
      -52.90380
 21
      -25.74290
 31
        0.00000
 12
      -51.90380
 22
      -26.74290
 32
        0.00000
 13
      -51.90380
 23
      -26.74290
 33
        0.10000
999
North Arrow Side 3
  0
3DFACE
  8
1
 62
  3
 10
      -51.90380
 20
      -25.74290
 30
        0.10000
 11
      -51.90380
 21
      -25.74290
 31
        0.00000
 12
      -51.90380
 22
      -26.74290
 32
        0.00000
 13
      -51.90380
 23
      -26.74290
 33
        0.10000
999
Zone Names
999
Zone=1:BAKERY
999
Zone=2:DELI
999
Zone=3:DRYSTORAGE
999
Zone=4:OFFICE
999
Zone=5:PRODUCE
999
Zone=6:SALES
999
BAKERY:BAKERY_WALL_SOUTH
  0
3DFACE
  8
BAKERY
 62
 43
 10
       26.88750
 20
      -30.24290
 30
        6.09600
 11
       26.88750
 21
      -30.24290
 31
        0.00000
 12
       36.78630
 22
      -30.24290
 32
        0.00000
 13
       36.78630
 23
      -30.24290
 33
        6.09600
999
BAKERY:BAKERY_WALL__2
  0
3DFACE
  8
BAKERY
 62
 43
 10
       36.78630
 20
      -30.24290
 30
        6.09600
 11
       36.78630
 21
      -30.24290
 31
        0.00000
 12
       36.78630
 22
       -9.12510
 32
        0.00000
 13
       36.78630
 23
       -9.12510
 33
        6.09600
999
BAKERY:BAKERY_WALL__4
  0
3DFACE
  8
BAKERY
 62
 43
 10
       26.88750
 20
       -9.12510
 30
        6.09600
 11
       26.88750
 21
       -9.12510
 31
        0.00000
 12
       26.88750
 22
      -30.24290
 32
        0.00000
 13
       26.88750
 23
      -30.24290
 33
        6.09600
999
BAKERY:DELI_WALL_SOUTH-PPAUTOCREATEOTHER
  0
3DFACE
  8
BAKERY
 62
 43
 10
       36.78630
 20
       -9.12510
 30
        6.09600
 11
       36.78630
 21
       -9.12510
 31
        0.00000
 12
       26.88750
 22
       -9.12510
 32
        0.00000
 13
       26.88750
 23
       -9.12510
 33
        6.09600
999
BAKERY:BAKERY_FLOOR
  0
3DFACE
  8
BAKERY
 62
  8
 10
       36.78630
 20
       -9.12510
 30
        0.00000
 11
       36.78630
 21
      -30.24290
 31
        0.00000
 12
       26.88750
 22
      -30.24290
 32
        0.00000
 13
       26.88750
 23
       -9.12510
 33
        0.00000
999
BAKERY:BAKERY_CEILING
  0
3DFACE
  8
BAKERY
 62
 15
 10
       26.88750
 20
       -9.12510
 30
        6.09600
 11
       26.88750
 21
      -30.24290
 31
        6.09600
 12
       36.78630
 22
      -30.24290
 32
        6.09600
 13
       36.78630
 23
       -9.12510
 33
        6.09600
999
DELI:DELI_WALL_EAST
  0
3DFACE
  8
DELI
 62
 43
 10
       36.78630
 20
       -9.12510
 30
        6.09600
 11
       36.78630
 21
       -9.12510
 31
        0.00000
 12
       36.78630
 22
       13.57650
 32
        0.00000
 13
       36.78630
 23
       13.57650
 33
        6.09600
999
DELI:DELI_WALL_SOUTH
  0
3DFACE
  8
DELI
 62
 43
 10
       26.88750
 20
       -9.12510
 30
        6.09600
 11
       26.88750
 21
       -9.12510
 31
        0.00000
 12
       36.78630
 22
       -9.12510
 32
        0.00000
 13
       36.78630
 23
       -9.12510
 33
        6.09600
999
DELI:DELI_WALL_WEST
  0
3DFACE
  8
DELI
 62
 43
 10
       26.88750
 20
       13.57650
 30
        6.09600
 11
       26.88750
 21
       13.57650
 31
        0.00000
 12
       26.88750
 22
       -9.12510
 32
        0.00000
 13
       26.88750
 23
       -9.12510
 33
        6.09600
999
DELI:OFFICE_WALL_SOUTH-PPAUTOCREATEOTHER
  0
3DFACE
  8
DELI
 62
 43
 10
       36.78630
 20
       13.57650
 30
        6.09600
 11
       36.78630
 21
       13.57650
 31
        0.00000
 12
       26.88750
 22
       13.57650
 32
        0.00000
 13
       26.88750
 23
       13.57650
 33
        6.09600
999
DELI:DELI_FLOOR
  0
3DFACE
  8
DELI
 62
  8
 10
       36.78630
 20
       13.57650
 30
        0.00000
 11
       36.78630
 21
       -9.12510
 31
        0.00000
 12
       26.88750
 22
       -9.12510
 32
        0.00000
 13
       26.88750
 23
       13.57650
 33
        0.00000
999
DELI:DELI_CEILING
  0
3DFACE
  8
DELI
 62
 15
 10
       26.88750
 20
       13.57650
 30
        6.09600
 11
       26.88750
 21
       -9.12510
 31
        6.09600
 12
       36.78630
 22
       -9.12510
 32
        6.09600
 13
       36.78630
 23
       13.57650
 33
        6.09600
999
DRYSTORAGE:DRYSTORAGE_WALL_NORTH
  0
3DFACE
  8
DRYSTORAGE
 62
 43
 10
       26.88750
 20
       22.55150
 30
        6.09600
 11
       26.88750
 21
       22.55150
 31
        0.00000
 12
      -42.40380
 22
       22.55150
 32
        0.00000
 13
      -42.40380
 23
       22.55150
 33
        6.09600
999
DRYSTORAGE:DRYSTORAGE_WALL_WEST
  0
3DFACE
  8
DRYSTORAGE
 62
 43
 10
      -42.40380
 20
       22.55150
 30
        6.09600
 11
      -42.40380
 21
       22.55150
 31
        0.00000
 12
      -42.40380
 22
       13.57650
 32
        0.00000
 13
      -42.40380
 23
       13.57650
 33
        6.09600
999
DRYSTORAGE:OFFICE_WALL_WEST-PPAUTOCREATEOTHER
  0
3DFACE
  8
DRYSTORAGE
 62
 43
 10
       26.88750
 20
       13.57650
 30
        6.09600
 11
       26.88750
 21
       13.57650
 31
        0.00000
 12
       26.88750
 22
       22.55150
 32
        0.00000
 13
       26.88750
 23
       22.55150
 33
        6.09600
999
DRYSTORAGE:PRODUCE_WALL_NORTH-PPAUTOCREATEOTHER
  0
3DFACE
  8
DRYSTORAGE
 62
 43
 10
      -42.40380
 20
       13.57650
 30
        6.09600
 11
      -42.40380
 21
       13.57650
 31
        0.00000
 12
      -26.16980
 22
       13.57650
 32
        0.00000
 13
      -26.16980
 23
       13.57650
 33
        6.09600
999
DRYSTORAGE:SALES_WALL_NORTH-PPAUTOCREATEOTHER
  0
3DFACE
  8
DRYSTORAGE
 62
 43
 10
      -26.16980
 20
       13.57650
 30
        6.09600
 11
      -26.16980
 21
       13.57650
 31
        0.00000
 12
       26.88750
 22
       13.57650
 32
        0.00000
 13
       26.88750
 23
       13.57650
 33
        6.09600
999
DRYSTORAGE:DRYSTORAGE_FLOOR
  0
3DFACE
  8
DRYSTORAGE
 62
  8
 10
       26.88750
 20
       22.55150
 30
        0.00000
 11
       26.88750
 21
       13.57650
 31
        0.00000
 12
      -42.40380
 22
       13.57650
 32
        0.00000
 13
      -42.40380
 23
       22.55150
 33
        0.00000
999
DRYSTORAGE:DRYSTORAGE_CEILING
  0
3DFACE
  8
DRYSTORAGE
 62
 15
 10
      -42.40380
 20
       22.55150
 30
        6.09600
 11
      -42.40380
 21
       13.57650
 31
        6.09600
 12
       26.88750
 22
       13.57650
 32
        6.09600
 13
       26.88750
 23
       22.55150
 33
        6.09600
999
OFFICE:OFFICE_WALL_EAST
  0
3DFACE
  8
OFFICE
 62
 43
 10
       36.78630
 20
       13.57650
 30
        6.09600
 11
       36.78630
 21
       13.57650
 31
        0.00000
 12
       36.78630
 22
       22.55150
 32
        0.00000
 13
       36.78630
 23
       22.55150
 33
        6.09600
999
OFFICE:OFFICE_WALL_NORTH
  0
3DFACE
  8
OFFICE
 62
 43
 10
       36.78630
 20
       22.55150
 30
        6.09600
 11
       36.78630
 21
       22.55150
 31
        0.00000
 12
       26.88750
 22
       22.55150
 32
        0.00000
 13
       26.88750
 23
       22.55150
 33
        6.09600
999
OFFICE:OFFICE_WALL_SOUTH
  0
3DFACE
  8
OFFICE
 62
 43
 10
       26.88750
 20
       13.57650
 30
        6.09600
 11
       26.88750
 21
       13.57650
 31
        0.00000
 12
       36.78630
 22
       13.57650
 32
        0.00000
 13
       36.78630
 23
       13.57650
 33
        6.09600
999
OFFICE:OFFICE_WALL_WEST
  0
3DFACE
  8
OFFICE
 62
 43
 10
       26.88750
 20
       22.55150
 30
        6.09600
 11
       26.88750
 21
       22.55150
 31
        0.00000
 12
       26.88750
 22
       13.57650
 32
        0.00000
 13
       26.88750
 23
       13.57650
 33
        6.09600
999
OFFICE:OFFICE_FLOOR
  0
3DFACE
  8
OFFICE
 62
  8
 10
       36.78630
 20
       22.55150
 30
        0.00000
 11
       36.78630
 21
       13.57650
 31
        0.00000
 12
       26.88750
 22
       13.57650
 32
        0.00000
 13
       26.88750
 23
       22.55150
 33
        0.00000
999
OFFICE:OFFICE_CEILING
  0
3DFACE
  8
OFFICE
 62
 15
 10
       26.88750
 20
       22.55150
 30
        6.09600
 11
       26.88750
 21
       13.57650
 31
        6.09600
 12
       36.78630
 22
       13.57650
 32
        6.09600
 13
       36.78630
 23
       22.55150
 33
        6.09600
999
PRODUCE:PRODUCE_WALL_NORTH
  0
3DFACE
  8
PRODUCE
 62
 43
 10
      -26.16980
 20
       13.57650
 30
        6.09600
 11
      -26.16980
 21
       13.57650
 31
        0.00000
 12
      -42.40380
 22
       13.57650
 32
        0.00000
 13
      -42.40380
 23
       13.57650
 33
        6.09600
999
PRODUCE:PRODUCE_WALL_SOUTH
  0
3DFACE
  8
PRODUCE
 62
 43
 10
      -42.40380
 20
      -30.24290
 30
        6.09600
 11
      -42.40380
 21
      -30.24290
 31
        0.00000
 12
      -26.16980
 22
      -30.24290
 32
        0.00000
 13
      -26.16980
 23
      -30.24290
 33
        6.09600
999
PRODUCE:PRODUCE_WALL_WEST
  0
3DFACE
  8
PRODUCE
 62
 43
 10
      -42.40380
 20
       13.57650
 30
        6.09600
 11
      -42.40380
 21
       13.57650
 31
        0.00000
 12
      -42.40380
 22
      -30.24290
 32
        0.00000
 13
      -42.40380
 23
      -30.24290
 33
        6.09600
999
PRODUCE:SALES_WALL_WEST-PPAUTOCREATEOTHER
  0
3DFACE
  8
PRODUCE
 62
 43
 10
      -26.16980
 20
      -30.24290
 30
        6.09600
 11
      -26.16980
 21
      -30.24290
 31
        0.00000
 12
      -26.16980
 22
       13.57650
 32
        0.00000
 13
      -26.16980
 23
       13.57650
 33
        6.09600
999
PRODUCE:PRODUCE_FLOOR
  0
3DFACE
  8
PRODUCE
 62
  8
 10
      -26.16980
 20
       13.57650
 30
        0.00000
 11
      -26.16980
 21
      -30.24290
 31
        0.00000
 12
      -42.40380
 22
      -30.24290
 32
        0.00000
 13
      -42.40380
 23
       13.57650
 33
        0.00000
999
PRODUCE:PRODUCE_CEILING
  0
3DFACE
  8
PRODUCE
 62
 15
 10
      -42.40380
 20
       13.57650
 30
        6.09600
 11
      -42.40380
 21
      -30.24290
 31
        6.09600
 12
      -26.16980
 22
      -30.24290
 32
        6.09600
 13
      -26.16980
 23
       13.57650
 33
        6.09600
999
SALES:BAKERY_WALL__4-PPAUTOCREATEOTHER
  0
3DFACE
  8
SALES
 62
 43
 10
       26.88750
 20
      -30.24290
 30
        6.09600
 11
       26.88750
 21
      -30.24290
 31
        0.00000
 12
       26.88750
 22
       -9.12510
 32
        0.00000
 13
       26.88750
 23
       -9.12510
 33
        6.09600
999
SALES:DELI_WALL_WEST-PPAUTOCREATEOTHER
  0
3DFACE
  8
SALES
 62
 43
 10
       26.88750
 20
       -9.12510
 30
        6.09600
 11
       26.88750
 21
       -9.12510
 31
        0.00000
 12
       26.88750
 22
       13.57650
 32
        0.00000
 13
       26.88750
 23
       13.57650
 33
        6.09600
999
SALES:SALES_WALL_NORTH
  0
3DFACE
  8
SALES
 62
 43
 10
       26.88750
 20
       13.57650
 30
        6.09600
 11
       26.88750
 21
       13.57650
 31
        0.00000
 12
      -26.16980
 22
       13.57650
 32
        0.00000
 13
      -26.16980
 23
       13.57650
 33
        6.09600
999
SALES:SALES_WALL_SOUTH
  0
3DFACE
  8
SALES
 62
 43
 10
      -26.16980
 20
      -30.24290
 30
        6.09600
 11
      -26.16980
 21
      -30.24290
 31
        0.00000
 12
       26.88750
 22
      -30.24290
 32
        0.00000
 13
       26.88750
 23
      -30.24290
 33
        6.09600
999
SALES:SALES_WALL_SOUTH_WINDOW
  0
3DFACE
  8
SALES
 62
143
 10
      -25.68800
 20
      -30.24290
 30
        4.72560
 11
      -25.68800
 21
      -30.24290
 31
        1.37200
 12
       26.40600
 22
      -30.24290
 32
        1.37200
 13
       26.40600
 23
      -30.24290
 33
        4.72560
999
SALES:SALES_WALL_WEST
  0
3DFACE
  8
SALES
 62
 43
 10
      -26.16980
 20
       13.57650
 30
        6.09600
 11
      -26.16980
 21
       13.57650
 31
        0.00000
 12
      -26.16980
 22
      -30.24290
 32
        0.00000
 13
      -26.16980
 23
      -30.24290
 33
        6.09600
999
SALES:SALES_FLOOR
  0
3DFACE
  8
SALES
 62
  8
 10
       26.88750
 20
       13.57650
 30
        0.00000
 11
       26.88750
 21
      -30.24290
 31
        0.00000
 12
      -26.16980
 22
      -30.24290
 32
        0.00000
 13
      -26.16980
 23
       13.57650
 33
        0.00000
999
SALES:SALES_CEILING
  0
3DFACE
  8
SALES
 62
 15
 10
      -26.16980
 20
       13.57650
 30
        6.09600
 11
      -26.16980
 21
      -30.24290
 31
        6.09600
 12
       26.88750
 22
      -30.24290
 32
        6.09600
 13
       26.88750
 23
       13.57650
 33
        6.09600
  0
ENDSEC
  0
EOF
