Program Version,EnergyPlus, Version 8.6.0-198c6a3cff, YMD=2016.10.18 16:27,IDD_Version 8.6.0
   ** Warning ** Weather file location will be used rather than entered (IDF) Location object.
   **   ~~~   ** ..Location object=USA IL-CHICAGO-OHARE
   **   ~~~   ** ..Weather File Location=San Francisco Intl Ap CA USA TMY3 WMO#=724940
   **   ~~~   ** ..due to location differences, Latitude difference=[4.15] degrees, Longitude difference=[34.65] degrees.
   **   ~~~   ** ..Time Zone difference=[2.0] hour(s), Elevation difference=[98.95] percent, [188.00] meters.
   ** Warning ** CheckUsedConstructions: There are 2 nominally unused constructions in input.
   **   ~~~   ** For explicit details on each unused construction, use Output:Diagnostics,DisplayExtraWarnings;
   ** Warning ** Output:Meter: invalid Name="FANS:ELECTRICITY" - not found.
   ** Warning ** Output:Meter: invalid Name="COOLING:ELECTRICITY" - not found.
   ** Warning ** Output:Meter: invalid Name="HEATING:ELECTRICITY" - not found.
   ** Warning ** Output:Meter: invalid Name="HEATING:GAS" - not found.
   ** Warning ** Output:Meter: invalid Name="WATER HEATER:WATERSYSTEMS:GAS" - not found.
   ************* Testing Individual Branch Integrity
   ************* All Branches passed integrity testing
   ************* Testing Individual Supply Air Path Integrity
   ************* All Supply Air Paths passed integrity testing
   ************* Testing Individual Return Air Path Integrity
   ************* All Return Air Paths passed integrity testing
   ************* No node connection errors were found.
   ************* Beginning Simulation
   ** Warning ** Output:Table:TimeBins: User specified meter or variable not found: AIR SYSTEM OUTDOOR AIR FLOW FRACTION
   ** Warning ** Output:Table:TimeBins: User specified meter or variable not found: AVAILABILITY MANAGER NIGHT CYCLE CONTROL STATUS
   ************* Simulation Error Summary *************
   ** Warning ** The following Report Variables were requested but not generated
   **   ~~~   ** because IDF did not contain these elements or misspelled variable name -- check .rdd file
   ************* Key=*, VarName=AIR SYSTEM OUTDOOR AIR FLOW FRACTION, Frequency=Hourly
   ************* Key=*, VarName=AIR SYSTEM SIMULATION CYCLE ON OFF STATUS, Frequency=Hourly
   ************* Key=*, VarName=AIR SYSTEM OUTDOOR AIR ECONOMIZER STATUS, Frequency=Hourly
   ************* Key=*, VarName=AIR SYSTEM TOTAL HEATING ENERGY, Frequency=Hourly
   ************* Key=*, VarName=AIR SYSTEM TOTAL COOLING ENERGY, Frequency=Hourly
   ************* Key=*, VarName=AIR SYSTEM FAN ELECTRIC ENERGY, Frequency=Hourly
   ** Severe  ** Orphaned ZoneHVAC object found.  This was object never referenced in the idf, and was not used.
   **   ~~~   **  -- Object type: ZONEHVAC:PACKAGEDTERMINALAIRCONDITIONER
   **   ~~~   **  -- Object name: PTAC1
   ************* There are 8 unused objects in input.
   ************* Use Output:Diagnostics,DisplayUnusedObjects; to see them.
   ************* There are 58 unused schedules in input.
   ************* Use Output:Diagnostics,DisplayUnusedSchedules; to see them.
   *************
   ************* ===== Final Error Summary =====
   ************* The following error categories occurred.  Consider correcting or noting.
   ************* Nominally Unused Constructions
   ************* ..The nominally unused constructions warning is provided to alert you to potential conditions that can cause
   ************* ..extra time during simulation. Each construction is calculated by the algorithm indicated in the HeatBalanceAlgorithm
   ************* ..object. You may remove the constructions indicated (when you use the DisplayExtraWarnings option).
   *************
   ************* EnergyPlus Warmup Error Summary. During Warmup: 0 Warning; 0 Severe Errors.
   ************* EnergyPlus Sizing Error Summary. During Sizing: 0 Warning; 0 Severe Errors.
   ************* EnergyPlus Completed Successfully-- 10 Warning; 1 Severe Errors; Elapsed Time=00hr 00min  8.18sec
