Program Version,EnergyPlus, Version 8.6.0-198c6a3cff, YMD=2016.10.18 16:27
! <Version>, Version ID
 Version, 8.6
! <Timesteps per Hour>, #TimeSteps, Minutes per TimeStep {minutes}
 Timesteps per Hour,  4, 15
! <System Convergence Limits>, Minimum System TimeStep {minutes}, Max HVAC Iterations, Minimum Plant Iterations, Maximum Plant Iterations
 System Convergence Limits, 2, 25, 2, 8
! <Simulation Control>, Do Zone Sizing, Do System Sizing, Do Plant Sizing, Do Design Days, Do Weather Simulation, Do HVAC Sizing Simulation
 Simulation Control, No, No, No, No, Yes, No
! <Output Reporting Tolerances>, Tolerance for Time Heating Setpoint Not Met, Tolerance for Zone Cooling Setpoint Not Met Time
 Output Reporting Tolerances, 0.556, 0.556, 
! <Site:GroundTemperature:BuildingSurface>, Months From Jan to Dec {C}
 Site:GroundTemperature:BuildingSurface,  19.53,  19.50,  19.54,  19.60,  20.00,  21.64,  22.23,  22.38,  21.45,  20.12,  19.80,  19.63
! <Site:GroundTemperature:FCfactorMethod>, Months From Jan to Dec {C}
 Site:GroundTemperature:FCfactorMethod,  10.86,  10.57,  11.08,  11.88,  13.97,  15.58,  16.67,  17.00,  16.44,  15.19,  13.51,  11.96
! <Site:GroundTemperature:Shallow>, Months From Jan to Dec {C}
 Site:GroundTemperature:Shallow,  13.00,  13.00,  13.00,  13.00,  13.00,  13.00,  13.00,  13.00,  13.00,  13.00,  13.00,  13.00
! <Site:GroundTemperature:Deep>, Months From Jan to Dec {C}
 Site:GroundTemperature:Deep,  16.00,  16.00,  16.00,  16.00,  16.00,  16.00,  16.00,  16.00,  16.00,  16.00,  16.00,  16.00
! <Site:GroundReflectance>, Months From Jan to Dec {dimensionless}
 Site:GroundReflectance,  0.20,  0.20,  0.20,  0.20,  0.20,  0.20,  0.20,  0.20,  0.20,  0.20,  0.20,  0.20
! <Site:GroundReflectance:SnowModifier>, Normal, Daylighting {dimensionless}
 Site:GroundReflectance:SnowModifier,   1.000,   1.000
! <Site:GroundReflectance:Snow>, Months From Jan to Dec {dimensionless}
 Site:GroundReflectance:Snow,  0.20,  0.20,  0.20,  0.20,  0.20,  0.20,  0.20,  0.20,  0.20,  0.20,  0.20,  0.20
! <Site:GroundReflectance:Snow:Daylighting>, Months From Jan to Dec {dimensionless}
 Site:GroundReflectance:Snow:Daylighting,  0.20,  0.20,  0.20,  0.20,  0.20,  0.20,  0.20,  0.20,  0.20,  0.20,  0.20,  0.20
! <Environment:Weather Station>,Wind Sensor Height Above Ground {m},Wind Speed Profile Exponent {},Wind Speed Profile Boundary Layer Thickness {m},Air Temperature Sensor Height Above Ground {m},Wind Speed Modifier Coefficient [Internal],Temperature Modifier Coefficient [Internal]
Environment:Weather Station,10.000,0.140,270.000,1.500,1.586,9.750E-003
! <Site:Location>, Location Name, Latitude {N+/S- Deg}, Longitude {E+/W- Deg},  Time Zone Number {GMT+/-}, Elevation {m},  Standard Pressure at Elevation {Pa}, Standard RhoAir at Elevation
Site:Location,San Francisco Intl Ap CA USA TMY3 WMO#=724940,37.62,-122.40,-8.00,2.00,101301,1.2040
! <Building Information>, Building Name,North Axis {deg},Terrain,  Loads Convergence Tolerance Value,Temperature Convergence Tolerance Value,  Solar Distribution,Maximum Number of Warmup Days,Minimum Number of Warmup Days
 Building Information,Ref Bldg SuperMarket New2004_v1.3_5.0,0.000,City,4.00000E-002,0.20000,FullInteriorAndExterior,25,6
! <Inside Convection Algorithm>, Algorithm {Simple | TARP | CeilingDiffuser | AdaptiveConvectionAlgorithm}
Inside Convection Algorithm,TARP
! <Outside Convection Algorithm>, Algorithm {SimpleCombined | TARP | MoWitt | DOE-2 | AdaptiveConvectionAlgorithm}
Outside Convection Algorithm,DOE-2
! <Sky Radiance Distribution>, Value {Anisotropic}
Sky Radiance Distribution,Anisotropic
! <Zone Air Solution Algorithm>, Value {ThirdOrderBackwardDifference | AnalyticalSolution | EulerMethod}
 Zone Air Solution Algorithm, AnalyticalSolution
! <Zone Air Carbon Dioxide Balance Simulation>, Simulation {Yes/No}, Carbon Dioxide Concentration
 Zone Air Carbon Dioxide Balance Simulation, No,N/A
! <Zone Air Generic Contaminant Balance Simulation>, Simulation {Yes/No}, Generic Contaminant Concentration
 Zone Air Generic Contaminant Balance Simulation, No,N/A
! <Zone Air Mass Flow Balance Simulation>, Enforce Mass Balance, Adjust Zone Mixing, Adjust Zone Infiltration {AddInfiltration | AdjustInfiltration | None}, Infiltration Zones {MixingSourceZonesOnly | AllZones}
 Zone Air Mass Flow Balance Simulation, No,N/A,N/A,N/A
! <Environment:Site Atmospheric Variation>,Wind Speed Profile Exponent {},Wind Speed Profile Boundary Layer Thickness {m},Air Temperature Gradient Coefficient {K/m}
Environment:Site Atmospheric Variation,0.330,460.000,6.500000E-003
! <SurfaceGeometry>,Starting Corner,Vertex Input Direction,Coordinate System,Daylight Reference Point Coordinate System,Rectangular (Simple) Surface Coordinate System
 Surface Geometry,UpperLeftCorner,Counterclockwise,RelativeCoordinateSystem,RelativeCoordinateSystem,RelativeToZoneOrigin
! <Surface Heat Transfer Algorithm>, Value {CTF - ConductionTransferFunction | EMPD - MoisturePenetrationDepthConductionTransferFunction | CondFD - ConductionFiniteDifference | HAMT - CombinedHeatAndMoistureFiniteElement} - Description,Inside Surface Max Temperature Limit{C}, Surface Convection Coefficient Lower Limit {W/m2-K}, Surface Convection Coefficient Upper Limit {W/m2-K}
Surface Heat Transfer Algorithm, CTF - ConductionTransferFunction,200,0.10,1000.0
! <Shading Summary>, Number of Fixed Detached Shades, Number of Building Detached Shades, Number of Attached Shades
 Shading Summary,0,0,0
! <Zone Summary>, Number of Zones, Number of Zone Surfaces, Number of SubSurfaces
 Zone Summary,6,45,1
! <Zone Information>,Zone Name,North Axis {deg},Origin X-Coordinate {m},Origin Y-Coordinate {m},Origin Z-Coordinate {m},Centroid X-Coordinate {m},Centroid Y-Coordinate {m},Centroid Z-Coordinate {m},Type,Zone Multiplier,Zone List Multiplier,Minimum X {m},Maximum X {m},Minimum Y {m},Maximum Y {m},Minimum Z {m},Maximum Z {m},Ceiling Height {m},Volume {m3},Zone Inside Convection Algorithm {Simple-Detailed-CeilingDiffuser-TrombeWall},Zone Outside Convection Algorithm {Simple-Detailed-Tarp-MoWitt-DOE-2-BLAST}, Floor Area {m2},Exterior Gross Wall Area {m2},Exterior Net Wall Area {m2},Exterior Window Area {m2}, Number of Surfaces, Number of SubSurfaces, Number of Shading SubSurfaces,  Part of Total Building Area
 Zone Information, BAKERY,0.0,0.00,0.00,0.00,31.84,-19.68,3.05,1,1,1,26.89,36.79,-30.24,-9.13,0.00,6.10,6.10,1274.31,TARP,DOE-2,209.04,189.08,189.08,0.00,6,0,0,Yes
 Zone Information, DELI,0.0,0.00,0.00,0.00,31.84,2.23,3.05,1,1,1,26.89,36.79,-9.13,13.58,0.00,6.10,6.10,1369.88,TARP,DOE-2,224.72,138.39,138.39,0.00,6,0,0,Yes
 Zone Information, DRYSTORAGE,0.0,0.00,0.00,0.00,-7.76,18.06,3.05,1,1,1,-42.40,26.89,13.58,22.55,0.00,6.10,6.10,3791.04,TARP,DOE-2,621.89,477.11,477.11,0.00,7,0,0,Yes
 Zone Information, OFFICE,0.0,0.00,0.00,0.00,31.84,18.06,3.05,1,1,1,26.89,36.79,13.58,22.55,0.00,6.10,6.10,541.58,TARP,DOE-2,88.84,115.05,115.05,0.00,6,0,0,Yes
 Zone Information, PRODUCE,0.0,0.00,0.00,0.00,-34.29,-8.33,3.05,1,1,1,-42.40,-26.17,-30.24,13.58,0.00,6.10,6.10,4336.48,TARP,DOE-2,711.36,366.09,366.09,0.00,6,0,0,Yes
 Zone Information, SALES,0.0,0.00,0.00,0.00,0.36,-8.33,3.05,1,1,1,-26.17,26.89,-30.24,13.58,0.00,6.10,6.10,14172.83,TARP,DOE-2,2324.94,323.44,148.73,174.70,7,1,0,Yes
! <Zone Internal Gains/Equipment Information - Nominal>,Zone Name, Floor Area {m2},# Occupants,Area per Occupant {m2/person},Occupant per Area {person/m2},Interior Lighting {W/m2},Electric Load {W/m2},Gas Load {W/m2},Other Load {W/m2},Hot Water Eq {W/m2},Steam Equipment {W/m2},Sum Loads per Area {W/m2},Outdoor Controlled Baseboard Heat
 Zone Internal Gains, BAKERY,209.04,18.0,11.610,8.613E-002,18.290,53.789,26.894,0.000,0.000,0.000,98.973,No
 Zone Internal Gains, DELI,224.72,19.4,11.610,8.613E-002,18.290,56.199,26.936,0.000,0.000,0.000,101.425,No
 Zone Internal Gains, DRYSTORAGE,621.89,22.3,27.870,3.588E-002,8.610,8.070,0.000,0.000,0.000,0.000,16.680,No
 Zone Internal Gains, OFFICE,88.84,4.8,18.580,5.382E-002,11.840,8.070,0.000,0.000,0.000,0.000,19.910,No
 Zone Internal Gains, PRODUCE,711.36,61.3,11.610,8.613E-002,18.290,5.380,0.000,0.000,0.000,0.000,23.670,No
 Zone Internal Gains, SALES,2324.94,200.3,11.610,8.613E-002,18.290,5.380,0.000,0.000,0.000,0.000,23.670,No
! <People Internal Gains - Nominal>,Name,Schedule Name,Zone Name,Zone Floor Area {m2},# Zone Occupants,Number of People {},People/Floor Area {person/m2},Floor Area per person {m2/person},Fraction Radiant,Fraction Convected,Sensible Fraction Calculation,Activity level,ASHRAE 55 Warnings,Carbon Dioxide Generation Rate,Nominal Minimum Number of People,Nominal Maximum Number of People,MRT Calculation Type,Work Efficiency, Clothing Insulation Calculation Method,Clothing Insulation Calculation Method Schedule,Clothing,Air Velocity,Fanger Calculation,Pierce Calculation,KSU Calculation
 People Internal Gains, BAKERY PEOPLE,BLDG_OCC_SCH,BAKERY,209.04,18.0,18.0,8.613E-002,11.610,0.300,0.700,AutoCalculate,ACTIVITY_SCH,No,3.8200E-008,0,18,Zone Averaged,WORK_EFF_SCH,Clothing Insulation Schedule,N/A,CLOTHING_SCH,AIR_VELO_SCH,Yes,No,No
 People Internal Gains, DELI PEOPLE,BLDG_OCC_SCH,DELI,224.72,19.4,19.4,8.613E-002,11.610,0.300,0.700,AutoCalculate,ACTIVITY_SCH,No,3.8200E-008,0,19,Zone Averaged,WORK_EFF_SCH,Clothing Insulation Schedule,N/A,CLOTHING_SCH,AIR_VELO_SCH,Yes,No,No
 People Internal Gains, DRYSTORAGE PEOPLE,BLDG_OCC_SCH,DRYSTORAGE,621.89,22.3,22.3,3.588E-002,27.870,0.300,0.700,AutoCalculate,ACTIVITY_SCH,No,3.8200E-008,0,22,Zone Averaged,WORK_EFF_SCH,Clothing Insulation Schedule,N/A,CLOTHING_SCH,AIR_VELO_SCH,Yes,No,No
 People Internal Gains, OFFICE PEOPLE,BLDG_OCC_SCH,OFFICE,88.84,4.8,4.8,5.382E-002,18.580,0.300,0.700,AutoCalculate,ACTIVITY_SCH,No,3.8200E-008,0,5,Zone Averaged,WORK_EFF_SCH,Clothing Insulation Schedule,N/A,CLOTHING_SCH,AIR_VELO_SCH,Yes,No,No
 People Internal Gains, PRODUCE PEOPLE,BLDG_OCC_SCH,PRODUCE,711.36,61.3,61.3,8.613E-002,11.610,0.300,0.700,AutoCalculate,ACTIVITY_SCH,No,3.8200E-008,0,61,Zone Averaged,WORK_EFF_SCH,Clothing Insulation Schedule,N/A,CLOTHING_SCH,AIR_VELO_SCH,Yes,No,No
 People Internal Gains, SALES PEOPLE,BLDG_OCC_SCH,SALES,2324.94,200.3,200.3,8.613E-002,11.610,0.300,0.700,AutoCalculate,ACTIVITY_SCH,No,3.8200E-008,0,200,Zone Averaged,WORK_EFF_SCH,Clothing Insulation Schedule,N/A,CLOTHING_SCH,AIR_VELO_SCH,Yes,No,No
! <Lights Internal Gains - Nominal>,Name,Schedule Name,Zone Name,Zone Floor Area {m2},# Zone Occupants,Lighting Level {W},Lights/Floor Area {W/m2},Lights per person {W/person},Fraction Return Air,Fraction Radiant,Fraction Short Wave,Fraction Convected,Fraction Replaceable,End-Use Category,Nominal Minimum Lighting Level {W},Nominal Maximum Lighting Level {W}
 Lights Internal Gains, BAKERY_LIGHTS,BLDG_LIGHT_SCH,BAKERY,209.04,18.0,3823.358,18.290,212.347,0.000,0.700,0.200,0.100,1.000,General,0.000,3823.358
 Lights Internal Gains, DELI_LIGHTS,BLDG_LIGHT_SCH,DELI,224.72,19.4,4110.103,18.290,212.347,0.000,0.700,0.200,0.100,1.000,General,0.000,4110.103
 Lights Internal Gains, DRYSTORAGE_LIGHTS,BLDG_LIGHT_SCH,DRYSTORAGE,621.89,22.3,5354.468,8.610,239.961,0.000,0.700,0.200,0.100,1.000,General,0.000,5354.468
 Lights Internal Gains, OFFICE_LIGHTS,BLDG_LIGHT_SCH,OFFICE,88.84,4.8,1051.886,11.840,219.987,0.000,0.700,0.200,0.100,1.000,General,0.000,1051.886
 Lights Internal Gains, PRODUCE_LIGHTS,BLDG_LIGHT_SCH,PRODUCE,711.36,61.3,13010.850,18.290,212.347,0.000,0.700,0.200,0.100,1.000,General,0.000,13010.850
 Lights Internal Gains, SALES_LIGHTS,BLDG_LIGHT_SCH,SALES,2324.94,200.3,42523.135,18.290,212.347,0.000,0.700,0.200,0.100,1.000,General,0.000,42523.135
! <ElectricEquipment Internal Gains - Nominal>,Name,Schedule Name,Zone Name,Zone Floor Area {m2},# Zone Occupants,Equipment Level {W},Equipment/Floor Area {W/m2},Equipment per person {W/person},Fraction Latent,Fraction Radiant,Fraction Lost,Fraction Convected,End-Use SubCategory,Nominal Minimum Equipment Level {W},Nominal Maximum Equipment Level {W}
 ElectricEquipment Internal Gains, BAKERY_MISCPLUG_EQUIP,BLDG_EQUIP_SCH,BAKERY,209.04,18.0,11244.000,53.789,624.485,0.000,0.500,0.000,0.500,MiscPlug,0.000,11244.000
 ElectricEquipment Internal Gains, DELI_MISCPLUG_EQUIP,BLDG_EQUIP_SCH,DELI,224.72,19.4,12105.000,53.867,625.400,0.000,0.500,0.000,0.500,MiscPlug,0.000,12105.000
 ElectricEquipment Internal Gains, DRYSTORAGE_MISCPLUG_EQUIP,BLDG_EQUIP_SCH,DRYSTORAGE,621.89,22.3,5018.648,8.070,224.911,0.000,0.500,0.000,0.500,MiscPlug,0.000,5018.648
 ElectricEquipment Internal Gains, OFFICE_MISCPLUG_EQUIP,BLDG_EQUIP_SCH,OFFICE,88.84,4.8,716.953,8.070,149.941,0.000,0.500,0.000,0.500,MiscPlug,0.000,716.953
 ElectricEquipment Internal Gains, PRODUCE_MISCPLUG_EQUIP,BLDG_EQUIP_SCH,PRODUCE,711.36,61.3,3827.139,5.380,62.462,0.000,0.500,0.000,0.500,MiscPlug,0.000,3827.139
 ElectricEquipment Internal Gains, SALES_MISCPLUG_EQUIP,BLDG_EQUIP_SCH,SALES,2324.94,200.3,12508.172,5.380,62.462,0.000,0.500,0.000,0.500,MiscPlug,0.000,12508.172
 ElectricEquipment Internal Gains, DELI_EXHAUST_FAN,DELI_EXHAUST_SCH,DELI,224.72,19.4,524.000,2.332,27.072,0.000,0.000,1.000,0.000,ExhaustFans,0.000,524.000
! <GasEquipment Internal Gains - Nominal>,Name,Schedule Name,Zone Name,Zone Floor Area {m2},# Zone Occupants,Equipment Level {W},Equipment/Floor Area {W/m2},Equipment per person {W/person},Fraction Latent,Fraction Radiant,Fraction Lost,Fraction Convected,End-Use SubCategory,Nominal Minimum Equipment Level {W},Nominal Maximum Equipment Level {W}
 GasEquipment Internal Gains, BAKERY_MISCGAS_EQUIP,BLDG_EQUIP_SCH,BAKERY,209.04,18.0,5622.000,26.894,312.242,0.000,0.500,0.000,0.500,MiscGas,0.000,5622.000
 GasEquipment Internal Gains, DELI_MISCGAS_EQUIP,BLDG_EQUIP_SCH,DELI,224.72,19.4,6053.000,26.936,312.726,0.000,0.500,0.000,0.500,MiscGas,0.000,6053.000
! <Construction CTF>,Construction Name,Index,#Layers,#CTFs,Time Step {hours},ThermalConductance {w/m2-K},OuterThermalAbsorptance,InnerThermalAbsorptance,OuterSolarAbsorptance,InnerSolarAbsorptance,Roughness
! <Material CTF Summary>,Material Name,Thickness {m},Conductivity {w/m-K},Density {kg/m3},Specific Heat {J/kg-K},ThermalResistance {m2-K/w}
! <Material:Air>,Material Name,ThermalResistance {m2-K/w}
! <CTF>,Time,Outside,Cross,Inside,Flux (except final one)
 Construction CTF,MASS NON-RES EXT WALL,   1,   4,  13,   0.250,     0.7799    ,   0.900,   0.900,   0.920,   0.920,Smooth
 Material CTF Summary,1IN STUCCO,  0.0253,         0.692,   1858.000,      837.000,  0.3657E-01
 Material CTF Summary,8IN CONCRETE HW,  0.2032,         1.311,   2240.000,      836.800,  0.1550    
 Material CTF Summary,MASS NONRES WALL INSULATION,  0.0495,         0.049,    265.000,      836.800,   1.011    
 Material CTF Summary,1/2IN GYPSUM,  0.0127,         0.160,    784.900,      830.000,  0.7937E-01
 CTF,  13,     -0.33490117E-11,     -0.69845296E-17,     -0.13738991E-11,      0.32160867E-15
 CTF,  12,      0.10396789E-07,     -0.69735235E-14,      0.22768123E-08,     -0.81161306E-12
 CTF,  11,     -0.51398925E-05,      0.52590815E-13,     -0.11914008E-05,      0.12653587E-08
 CTF,  10,      0.44391788E-03,      0.51860173E-10,      0.15390947E-03,     -0.51167469E-06
 CTF,   9,     -0.14764423E-01,      0.85890229E-08,     -0.58604236E-02,      0.39997458E-04
 CTF,   8,      0.25538991    ,      0.42919433E-06,      0.10504443    ,     -0.11556642E-02
 CTF,   7,      -2.6000378    ,      0.74722879E-05,      -1.0544809    ,      0.16972123E-01
 CTF,   6,       16.507663    ,      0.49335852E-04,       6.4226848    ,     -0.14391602    
 CTF,   5,      -67.086853    ,      0.12719953E-03,      -24.670426    ,      0.74512651    
 CTF,   4,       175.56510    ,      0.12440509E-03,       60.582802    ,      -2.4030780    
 CTF,   3,      -291.99946    ,      0.41396821E-04,      -94.285637    ,       4.7999729    
 CTF,   2,       296.20319    ,      0.36053227E-05,       89.480506    ,      -5.7257738    
 CTF,   1,      -166.18999    ,      0.42893413E-07,      -47.049869    ,       3.7113588    
 CTF,   0,       39.359686    ,     -0.41472809E-09,       10.475437    
 Construction CTF,IEAD NON-RES ROOF,   2,   3,   8,   0.250,     0.3762    ,   0.900,   0.900,   0.700,   0.700,VeryRough
 Material CTF Summary,ROOF MEMBRANE,  0.0095,         0.160,   1121.290,     1460.000,  0.5938E-01
 Material CTF Summary,IEAD NONRES ROOF INSULATION,  0.1273,         0.049,    265.000,      836.800,   2.599    
 Material CTF Summary,METAL DECKING,  0.0015,        45.006,   7680.000,      418.400,  0.3333E-04
 CTF,   8,      0.35756213E-09,      0.13429667E-11,      0.34154367E-08,     -0.64928706E-16
 CTF,   7,     -0.49883737E-02,     -0.75561003E-11,     -0.12934750E-01,      0.42854738E-09
 CTF,   6,      0.26966076    ,      0.15114288E-06,      0.30206146    ,     -0.16230743E-02
 CTF,   5,      -3.3860274    ,      0.25529694E-04,      -2.7593323    ,      0.35664382E-01
 CTF,   4,       18.554242    ,      0.46585679E-03,       12.814333    ,     -0.29766934    
 CTF,   3,      -52.114575    ,      0.17688114E-02,      -32.766556    ,       1.2089322    
 CTF,   2,       77.810831    ,      0.15714892E-02,       46.351565    ,      -2.5206134    
 CTF,   1,      -58.490392    ,      0.26475771E-03,      -33.810545    ,       2.5644120    
 CTF,   0,       17.365348    ,      0.29644365E-05,       9.8855070    
 Construction CTF,EXT-SLAB,   3,   1,   5,   0.250,      12.90    ,   0.900,   0.900,   0.700,   0.700,Rough
 Material CTF Summary,HW CONCRETE,  0.1016,         1.311,   2240.000,      836.800,  0.7750E-01
 CTF,   5,     -0.28011372E-05,      0.35189394E-06,     -0.28011372E-05,      0.54601499E-08
 CTF,   4,      0.55065334E-02,      0.10115609E-02,      0.55065334E-02,     -0.15522268E-04
 CTF,   3,     -0.90350871    ,      0.13343361    ,     -0.90350871    ,      0.42700326E-02
 CTF,   2,       16.860117    ,       1.6070310    ,       16.860117    ,     -0.13455879    
 CTF,   1,      -60.001181    ,       2.2627720    ,      -60.001181    ,      0.80090706    
 CTF,   0,       48.289461    ,      0.24614275    ,       48.289461    
 Construction CTF,INT-WALLS,   4,   2,   3,   0.250,      6.299    ,   0.900,   0.900,   0.920,   0.920,Smooth
 Material CTF Summary,1/2IN GYPSUM,  0.0127,         0.160,    784.900,      830.000,  0.7937E-01
 Material CTF Summary,1/2IN GYPSUM,  0.0127,         0.160,    784.900,      830.000,  0.7937E-01
 CTF,   3,     -0.11851811E-06,      0.40118884E-07,     -0.11851811E-06,      0.41119444E-18
 CTF,   2,      0.76347016E-01,      0.27087202E-01,      0.76347016E-01,     -0.11601463E-06
 CTF,   1,      -6.1951394    ,       2.7652960    ,      -6.1951394    ,      0.36006832E-01
 CTF,   0,       12.191191    ,       3.2800154    ,       12.191191    
 Construction CTF,DROPCEILING,   6,   1,   3,   0.250,      4.488    ,   0.900,   0.900,   0.700,   0.700,MediumSmooth
 Material CTF Summary,STD AC02,  0.0127,         0.057,    288.000,     1339.000,  0.2228    
 CTF,   3,     -0.53260828E-14,      0.38590732E-14,     -0.53260829E-14,       0.0000000    
 CTF,   2,      0.29572608E-03,      0.17480917E-03,      0.29572608E-03,     -0.50670342E-13
 CTF,   1,      -1.7155691    ,       1.0037059    ,      -1.7155691    ,      0.66704272E-03
 CTF,   0,       6.2004685    ,       3.4813145    ,       6.2004685    
 Construction CTF,AIR-WALL,   7,   1,   1,   0.250,      4.809    ,   0.900,   0.900,   0.700,   0.700,Rough
 Material CTF Summary,MAT-AIR-WALL,  0.0000,         0.000,      0.000,        0.000,  0.2079    
 CTF,   1,       0.0000000    ,       0.0000000    ,      -0.0000000    ,      -0.0000000    
 CTF,   0,       4.8088691    ,       4.8088691    ,       4.8088691    
 Construction CTF,INTERIORFURNISHINGS,   8,   1,   7,   0.250,     0.8000    ,   0.900,   0.900,   0.700,   0.700,MediumSmooth
 Material CTF Summary,STD WOOD 6INCH,  0.1500,         0.120,    540.000,     1210.000,   1.250    
 CTF,   7,     -0.19879948E-01,      0.18371110E-08,     -0.19879948E-01,      0.25920384E-02
 CTF,   6,      0.37833182    ,      0.93111392E-06,      0.37833182    ,     -0.50805208E-01
 CTF,   5,      -2.8822885    ,      0.33090332E-04,      -2.8822885    ,      0.40100636    
 CTF,   4,       11.391948    ,      0.23980383E-03,       11.391948    ,      -1.6521297    
 CTF,   3,      -25.286828    ,      0.46344169E-03,      -25.286828    ,       3.8446603    
 CTF,   2,       31.657742    ,      0.23933549E-03,       31.657742    ,      -5.0707043    
 CTF,   1,      -20.807361    ,      0.25331892E-04,      -20.807361    ,       3.5241279    
 CTF,   0,       5.5693388    ,      0.18852057E-06,       5.5693388    
! <WindowConstruction>,Construction Name,Index,#Layers,Roughness,Conductance {W/m2-K},SHGC,Solar Transmittance at Normal Incidence,Visible Transmittance at Normal Incidence
! <WindowMaterial:Glazing>, Material Name, Optical Data Type, Spectral Data Set Name, Thickness {m}, Solar Transmittance,Front Solar Reflectance, Back Solar Reflectance, Visible Transmittance, Front Visible Reflectance,Back Visible Reflectance,Infrared Transmittance, Front Thermal Emissivity, Back Thermal Emissivity,Conductivity {W/m-K},Dirt Factor,Solar Diffusing
 WindowConstruction,WINDOW NON-RES FIXED,5,1,VerySmooth,3.241,0.385,0.305,0.305
 WindowMaterial:Glazing,NONRES FIXED ASSEMBLY WINDOW,SpectralAverage,,2.00000E-003,0.30403,0.46624,0.46624,0.30403,0.46624,0.46624,0.00000,0.84000,0.84000,1.43749E-002,1.00000,No
! <Shadowing/Sun Position Calculations> [Annual Simulations], Calculation Method, Value {days}, Allowable Number Figures in Shadow Overlap {}, Polygon Clipping Algorithm, Sky Diffuse Modeling Algorithm
Shadowing/Sun Position Calculations,AverageOverDaysInFrequency,7,15000,SutherlandHodgman,SimpleSkyDiffuseModeling
! <Surface Convection Parameters>, Surface Name, Outside Model Assignment, Outside Area [m2], Outside Perimeter [m], Outside Height [m], Inside Model Assignment, Inside Height [cm], Inside Perimeter Envelope [m], Inside Hydraulic Diameter [m], Window Wall Ratio [ ], Window Location [ ], Near Radiant [Yes/No], Has Active HVAC [Yes/No]
Surface Convection Parameters,BAKERY_WALL_SOUTH,0,482.74,181.73,6.10,0,6.10,31.02,13.48,0.00,0,No,No
Surface Convection Parameters,BAKERY_WALL__2,0,321.83,140.89,6.10,0,6.10,31.02,13.48,0.00,0,No,No
Surface Convection Parameters,BAKERY_WALL__4,0,0.00,0.00,0.00,0,6.10,31.02,13.48,0.00,0,No,No
Surface Convection Parameters,DELI_WALL_SOUTH-PPAUTOCREATEOTHER,0,0.00,0.00,0.00,0,6.10,31.02,13.48,0.00,0,No,No
Surface Convection Parameters,BAKERY_FLOOR,0,0.00,0.00,0.00,0,6.10,31.02,13.48,0.00,0,No,No
Surface Convection Parameters,BAKERY_CEILING,0,4180.79,290.36,0.00,0,6.10,31.02,13.48,0.00,0,No,No
Surface Convection Parameters,BAKERY INTERNAL MASS,0,0.00,0.00,0.00,0,6.10,31.02,13.48,0.00,0,No,No
Surface Convection Parameters,DELI_WALL_EAST,0,321.83,140.89,6.10,0,6.10,22.70,13.79,0.00,0,No,No
Surface Convection Parameters,DELI_WALL_SOUTH,0,0.00,0.00,0.00,0,6.10,22.70,13.79,0.00,0,No,No
Surface Convection Parameters,DELI_WALL_WEST,0,0.00,0.00,0.00,0,6.10,22.70,13.79,0.00,0,No,No
Surface Convection Parameters,OFFICE_WALL_SOUTH-PPAUTOCREATEOTHER,0,0.00,0.00,0.00,0,6.10,22.70,13.79,0.00,0,No,No
Surface Convection Parameters,DELI_FLOOR,0,0.00,0.00,0.00,0,6.10,22.70,13.79,0.00,0,No,No
Surface Convection Parameters,DELI_CEILING,0,4180.79,290.36,0.00,0,6.10,22.70,13.79,0.00,0,No,No
Surface Convection Parameters,DELI INTERNAL MASS,0,0.00,0.00,0.00,0,6.10,22.70,13.79,0.00,0,No,No
Surface Convection Parameters,DRYSTORAGE_WALL_NORTH,0,482.74,176.87,6.10,0,6.10,78.27,15.89,0.00,0,No,No
Surface Convection Parameters,DRYSTORAGE_WALL_WEST,0,321.83,147.62,6.10,0,6.10,78.27,15.89,0.00,0,No,No
Surface Convection Parameters,OFFICE_WALL_WEST-PPAUTOCREATEOTHER,0,0.00,0.00,0.00,0,6.10,78.27,15.89,0.00,0,No,No
Surface Convection Parameters,PRODUCE_WALL_NORTH-PPAUTOCREATEOTHER,0,0.00,0.00,0.00,0,6.10,78.27,15.89,0.00,0,No,No
Surface Convection Parameters,SALES_WALL_NORTH-PPAUTOCREATEOTHER,0,0.00,0.00,0.00,0,6.10,78.27,15.89,0.00,0,No,No
Surface Convection Parameters,DRYSTORAGE_FLOOR,0,0.00,0.00,0.00,0,6.10,78.27,15.89,0.00,0,No,No
Surface Convection Parameters,DRYSTORAGE_CEILING,0,4180.79,290.36,0.00,0,6.10,78.27,15.89,0.00,0,No,No
Surface Convection Parameters,DRYSTORAGE INTERNAL MASS,0,0.00,0.00,0.00,0,6.10,78.27,15.89,0.00,0,No,No
Surface Convection Parameters,OFFICE_WALL_EAST,0,321.83,140.89,6.10,0,6.10,18.87,9.41,0.00,0,No,No
Surface Convection Parameters,OFFICE_WALL_NORTH,0,482.74,176.87,6.10,0,6.10,18.87,9.41,0.00,0,No,No
Surface Convection Parameters,OFFICE_WALL_SOUTH,0,0.00,0.00,0.00,0,6.10,18.87,9.41,0.00,0,No,No
Surface Convection Parameters,OFFICE_WALL_WEST,0,0.00,0.00,0.00,0,6.10,18.87,9.41,0.00,0,No,No
Surface Convection Parameters,OFFICE_FLOOR,0,0.00,0.00,0.00,0,6.10,18.87,9.41,0.00,0,No,No
Surface Convection Parameters,OFFICE_CEILING,0,4180.79,290.36,0.00,0,6.10,18.87,9.41,0.00,0,No,No
Surface Convection Parameters,OFFICE INTERNAL MASS,0,0.00,0.00,0.00,0,6.10,18.87,9.41,0.00,0,No,No
Surface Convection Parameters,PRODUCE_WALL_NORTH,0,0.00,0.00,0.00,0,6.10,60.05,23.69,0.00,0,No,No
Surface Convection Parameters,PRODUCE_WALL_SOUTH,0,482.74,181.73,6.10,0,6.10,60.05,23.69,0.00,0,No,No
Surface Convection Parameters,PRODUCE_WALL_WEST,0,321.83,147.62,6.10,0,6.10,60.05,23.69,0.00,0,No,No
Surface Convection Parameters,SALES_WALL_WEST-PPAUTOCREATEOTHER,0,0.00,0.00,0.00,0,6.10,60.05,23.69,0.00,0,No,No
Surface Convection Parameters,PRODUCE_FLOOR,0,0.00,0.00,0.00,0,6.10,60.05,23.69,0.00,0,No,No
Surface Convection Parameters,PRODUCE_CEILING,0,4180.79,290.36,0.00,0,6.10,60.05,23.69,0.00,0,No,No
Surface Convection Parameters,PRODUCE INTERNAL MASS,0,0.00,0.00,0.00,0,6.10,60.05,23.69,0.00,0,No,No
Surface Convection Parameters,BAKERY_WALL__4-PPAUTOCREATEOTHER,0,0.00,0.00,0.00,0,6.10,53.06,48.00,0.54,0,No,No
Surface Convection Parameters,DELI_WALL_WEST-PPAUTOCREATEOTHER,0,0.00,0.00,0.00,0,6.10,53.06,48.00,0.54,0,No,No
Surface Convection Parameters,SALES_WALL_NORTH,0,0.00,0.00,0.00,0,6.10,53.06,48.00,0.54,0,No,No
Surface Convection Parameters,SALES_WALL_SOUTH,0,482.74,181.73,6.10,0,6.10,53.06,48.00,0.54,3,No,No
Surface Convection Parameters,SALES_WALL_SOUTH_WINDOW,0,482.74,181.73,6.10,0,6.10,53.06,48.00,0.54,5,No,No
Surface Convection Parameters,SALES_WALL_WEST,0,0.00,0.00,0.00,0,6.10,53.06,48.00,0.54,0,No,No
Surface Convection Parameters,SALES_FLOOR,0,0.00,0.00,0.00,0,6.10,53.06,48.00,0.54,0,No,No
Surface Convection Parameters,SALES_CEILING,0,4180.79,290.36,0.00,0,6.10,53.06,48.00,0.54,0,No,No
Surface Convection Parameters,SALES INTERNAL MASS,0,0.00,0.00,0.00,0,6.10,53.06,48.00,0.54,0,No,No
! <RoomAir Model>, Zone Name, Mixing/Mundt/UCSDDV/UCSDCV/UCSDUFI/UCSDUFE/User Defined
RoomAir Model,BAKERY,Mixing/Well-Stirred
RoomAir Model,DELI,Mixing/Well-Stirred
RoomAir Model,DRYSTORAGE,Mixing/Well-Stirred
RoomAir Model,OFFICE,Mixing/Well-Stirred
RoomAir Model,PRODUCE,Mixing/Well-Stirred
RoomAir Model,SALES,Mixing/Well-Stirred
! <AirflowNetwork Model:Control>, No Multizone or Distribution/Multizone with Distribution/Multizone without Distribution/Multizone with Distribution only during Fan Operation
AirflowNetwork Model:Control,NoMultizoneOrDistribution
! <Zone Volume Capacitance Multiplier>, Sensible Heat Capacity Multiplier, Moisture Capacity Multiplier, Carbon Dioxide Capacity Multiplier, Generic Contaminant Capacity Multiplier
Zone Volume Capacitance Multiplier,   1.000 ,   1.000,   1.000,   1.000
! <Zone/Shading Surfaces>,<Zone Name>/#Shading Surfaces,# Surfaces
! <HeatTransfer/Shading/Frame/Divider_Surface>,Surface Name,Surface Class,Base Surface,Heat Transfer Algorithm,Construction/Transmittance Schedule,Nominal U (w/o film coefs)/Min Schedule Value,Nominal U (with film coefs)/Max Schedule Value,Solar Diffusing,Area (Net),Area (Gross),Area (Sunlit Calc),Azimuth,Tilt,~Width,~Height,Reveal,<ExtBoundCondition>,<ExtConvCoeffCalc>,<IntConvCoeffCalc>,<SunExposure>,<WindExposure>,ViewFactorToGround,ViewFactorToSky,ViewFactorToGround-IR,ViewFactorToSky-IR,#Sides
! <Units>,,,,,,{W/m2-K}/{},{W/m2-K}/{},{},{m2},{m2},{m2},{deg},{deg},{m},{m},{m},,,,,,,,,,
Zone_Surfaces,BAKERY,    7
HeatTransfer_Surface,BAKERY_WALL_SOUTH,Wall,,CTF - ConductionTransferFunction,,0.780,0.698,,60.34,60.34,60.34,180.00,90.00,9.90,6.10,0.00,ExternalEnvironment,DOE-2,ASHRAETARP,SunExposed,WindExposed,0.50,0.50,0.50,0.50,4
HeatTransfer_Surface,BAKERY_WALL__2,Wall,,CTF - ConductionTransferFunction,,0.780,0.698,,128.73,128.73,128.73,90.00,90.00,21.12,6.10,0.00,ExternalEnvironment,DOE-2,ASHRAETARP,SunExposed,WindExposed,0.50,0.50,0.50,0.50,4
HeatTransfer_Surface,BAKERY_WALL__4,Wall,,CTF - ConductionTransferFunction,,6.299,3.242,,128.73,128.73,128.73,270.00,90.00,21.12,6.10,0.00,BAKERY_WALL__4-PPAUTOCREATEOTHER,Other/Same Surface Int Conv,ASHRAETARP,NoSun,NoWind,0.50,0.50,0.50,0.50,4
HeatTransfer_Surface,DELI_WALL_SOUTH-PPAUTOCREATEOTHER,Wall,,CTF - ConductionTransferFunction,,6.299,3.242,,60.34,60.34,60.34,0.00,90.00,9.90,6.10,0.00,DELI_WALL_SOUTH,Other/Same Surface Int Conv,ASHRAETARP,NoSun,NoWind,0.50,0.50,0.50,0.50,4
HeatTransfer_Surface,BAKERY_FLOOR,Floor,,CTF - ConductionTransferFunction,,12.904,3.120,,209.04,209.04,209.04,0.00,180.00,9.90,21.12,0.00,Ground,N/A-Ground,ASHRAETARP,NoSun,NoWind,1.00,0.00,1.00,0.00,4
HeatTransfer_Surface,BAKERY_CEILING,Roof,,CTF - ConductionTransferFunction,,0.376,0.351,,209.04,209.04,209.04,180.00,0.00,9.90,21.12,0.00,ExternalEnvironment,DOE-2,ASHRAETARP,SunExposed,WindExposed,0.00,1.00,0.00,1.00,4
HeatTransfer_Surface,BAKERY INTERNAL MASS,Internal Mass,,CTF - ConductionTransferFunction,,0.800,0.800,,418.08,418.08,418.08,0.00,90.00,418.08,1.00,0.00,BAKERY INTERNAL MASS,Other/Same Surface Int Conv,ASHRAETARP,NoSun,NoWind,0.00,0.50,1.00,0.00,0
Zone_Surfaces,DELI,    7
HeatTransfer_Surface,DELI_WALL_EAST,Wall,,CTF - ConductionTransferFunction,,0.780,0.698,,138.39,138.39,138.39,90.00,90.00,22.70,6.10,0.00,ExternalEnvironment,DOE-2,ASHRAETARP,SunExposed,WindExposed,0.50,0.50,0.50,0.50,4
HeatTransfer_Surface,DELI_WALL_SOUTH,Wall,,CTF - ConductionTransferFunction,,6.299,3.242,,60.34,60.34,60.34,180.00,90.00,9.90,6.10,0.00,DELI_WALL_SOUTH-PPAUTOCREATEOTHER,Other/Same Surface Int Conv,ASHRAETARP,NoSun,NoWind,0.50,0.50,0.50,0.50,4
HeatTransfer_Surface,DELI_WALL_WEST,Wall,,CTF - ConductionTransferFunction,,6.299,3.242,,138.39,138.39,138.39,270.00,90.00,22.70,6.10,0.00,DELI_WALL_WEST-PPAUTOCREATEOTHER,Other/Same Surface Int Conv,ASHRAETARP,NoSun,NoWind,0.50,0.50,0.50,0.50,4
HeatTransfer_Surface,OFFICE_WALL_SOUTH-PPAUTOCREATEOTHER,Wall,,CTF - ConductionTransferFunction,,6.299,3.242,,60.34,60.34,60.34,0.00,90.00,9.90,6.10,0.00,OFFICE_WALL_SOUTH,Other/Same Surface Int Conv,ASHRAETARP,NoSun,NoWind,0.50,0.50,0.50,0.50,4
HeatTransfer_Surface,DELI_FLOOR,Floor,,CTF - ConductionTransferFunction,,12.904,3.120,,224.72,224.72,224.72,0.00,180.00,9.90,22.70,0.00,Ground,N/A-Ground,ASHRAETARP,NoSun,NoWind,1.00,0.00,1.00,0.00,4
HeatTransfer_Surface,DELI_CEILING,Roof,,CTF - ConductionTransferFunction,,0.376,0.351,,224.72,224.72,224.72,180.00,0.00,9.90,22.70,0.00,ExternalEnvironment,DOE-2,ASHRAETARP,SunExposed,WindExposed,0.00,1.00,0.00,1.00,4
HeatTransfer_Surface,DELI INTERNAL MASS,Internal Mass,,CTF - ConductionTransferFunction,,0.800,0.800,,449.44,449.44,449.44,0.00,90.00,449.44,1.00,0.00,DELI INTERNAL MASS,Other/Same Surface Int Conv,ASHRAETARP,NoSun,NoWind,0.00,0.50,1.00,0.00,0
Zone_Surfaces,DRYSTORAGE,    8
HeatTransfer_Surface,DRYSTORAGE_WALL_NORTH,Wall,,CTF - ConductionTransferFunction,,0.780,0.698,,422.40,422.40,422.40,0.00,90.00,69.29,6.10,0.00,ExternalEnvironment,DOE-2,ASHRAETARP,SunExposed,WindExposed,0.50,0.50,0.50,0.50,4
HeatTransfer_Surface,DRYSTORAGE_WALL_WEST,Wall,,CTF - ConductionTransferFunction,,0.780,0.698,,54.71,54.71,54.71,270.00,90.00,8.98,6.10,0.00,ExternalEnvironment,DOE-2,ASHRAETARP,SunExposed,WindExposed,0.50,0.50,0.50,0.50,4
HeatTransfer_Surface,OFFICE_WALL_WEST-PPAUTOCREATEOTHER,Wall,,CTF - ConductionTransferFunction,,6.299,3.242,,54.71,54.71,54.71,90.00,90.00,8.98,6.10,0.00,OFFICE_WALL_WEST,Other/Same Surface Int Conv,ASHRAETARP,NoSun,NoWind,0.50,0.50,0.50,0.50,4
HeatTransfer_Surface,PRODUCE_WALL_NORTH-PPAUTOCREATEOTHER,Wall,,CTF - ConductionTransferFunction,,6.299,3.242,,98.96,98.96,98.96,180.00,90.00,16.23,6.10,0.00,PRODUCE_WALL_NORTH,Other/Same Surface Int Conv,ASHRAETARP,NoSun,NoWind,0.50,0.50,0.50,0.50,4
HeatTransfer_Surface,SALES_WALL_NORTH-PPAUTOCREATEOTHER,Wall,,CTF - ConductionTransferFunction,,6.299,3.242,,323.44,323.44,323.44,180.00,90.00,53.06,6.10,0.00,SALES_WALL_NORTH,Other/Same Surface Int Conv,ASHRAETARP,NoSun,NoWind,0.50,0.50,0.50,0.50,4
HeatTransfer_Surface,DRYSTORAGE_FLOOR,Floor,,CTF - ConductionTransferFunction,,12.904,3.120,,621.89,621.89,621.89,0.00,180.00,69.29,8.98,0.00,Ground,N/A-Ground,ASHRAETARP,NoSun,NoWind,1.00,0.00,1.00,0.00,4
HeatTransfer_Surface,DRYSTORAGE_CEILING,Roof,,CTF - ConductionTransferFunction,,0.376,0.351,,621.89,621.89,621.89,180.00,0.00,69.29,8.98,0.00,ExternalEnvironment,DOE-2,ASHRAETARP,SunExposed,WindExposed,0.00,1.00,0.00,1.00,4
HeatTransfer_Surface,DRYSTORAGE INTERNAL MASS,Internal Mass,,CTF - ConductionTransferFunction,,0.800,0.800,,1243.78,1243.78,1243.78,0.00,90.00,1243.78,1.00,0.00,DRYSTORAGE INTERNAL MASS,Other/Same Surface Int Conv,ASHRAETARP,NoSun,NoWind,0.00,0.50,1.00,0.00,0
Zone_Surfaces,OFFICE,    7
HeatTransfer_Surface,OFFICE_WALL_EAST,Wall,,CTF - ConductionTransferFunction,,0.780,0.698,,54.71,54.71,54.71,90.00,90.00,8.98,6.10,0.00,ExternalEnvironment,DOE-2,ASHRAETARP,SunExposed,WindExposed,0.50,0.50,0.50,0.50,4
HeatTransfer_Surface,OFFICE_WALL_NORTH,Wall,,CTF - ConductionTransferFunction,,0.780,0.698,,60.34,60.34,60.34,0.00,90.00,9.90,6.10,0.00,ExternalEnvironment,DOE-2,ASHRAETARP,SunExposed,WindExposed,0.50,0.50,0.50,0.50,4
HeatTransfer_Surface,OFFICE_WALL_SOUTH,Wall,,CTF - ConductionTransferFunction,,6.299,3.242,,60.34,60.34,60.34,180.00,90.00,9.90,6.10,0.00,OFFICE_WALL_SOUTH-PPAUTOCREATEOTHER,Other/Same Surface Int Conv,ASHRAETARP,NoSun,NoWind,0.50,0.50,0.50,0.50,4
HeatTransfer_Surface,OFFICE_WALL_WEST,Wall,,CTF - ConductionTransferFunction,,6.299,3.242,,54.71,54.71,54.71,270.00,90.00,8.98,6.10,0.00,OFFICE_WALL_WEST-PPAUTOCREATEOTHER,Other/Same Surface Int Conv,ASHRAETARP,NoSun,NoWind,0.50,0.50,0.50,0.50,4
HeatTransfer_Surface,OFFICE_FLOOR,Floor,,CTF - ConductionTransferFunction,,12.904,3.120,,88.84,88.84,88.84,0.00,180.00,9.90,8.98,0.00,Ground,N/A-Ground,ASHRAETARP,NoSun,NoWind,1.00,0.00,1.00,0.00,4
HeatTransfer_Surface,OFFICE_CEILING,Roof,,CTF - ConductionTransferFunction,,0.376,0.351,,88.84,88.84,88.84,180.00,0.00,9.90,8.98,0.00,ExternalEnvironment,DOE-2,ASHRAETARP,SunExposed,WindExposed,0.00,1.00,0.00,1.00,4
HeatTransfer_Surface,OFFICE INTERNAL MASS,Internal Mass,,CTF - ConductionTransferFunction,,0.800,0.800,,177.68,177.68,177.68,0.00,90.00,177.68,1.00,0.00,OFFICE INTERNAL MASS,Other/Same Surface Int Conv,ASHRAETARP,NoSun,NoWind,0.00,0.50,1.00,0.00,0
Zone_Surfaces,PRODUCE,    7
HeatTransfer_Surface,PRODUCE_WALL_NORTH,Wall,,CTF - ConductionTransferFunction,,6.299,3.242,,98.96,98.96,98.96,0.00,90.00,16.23,6.10,0.00,PRODUCE_WALL_NORTH-PPAUTOCREATEOTHER,Other/Same Surface Int Conv,ASHRAETARP,NoSun,NoWind,0.50,0.50,0.50,0.50,4
HeatTransfer_Surface,PRODUCE_WALL_SOUTH,Wall,,CTF - ConductionTransferFunction,,0.780,0.698,,98.96,98.96,98.96,180.00,90.00,16.23,6.10,0.00,ExternalEnvironment,DOE-2,ASHRAETARP,SunExposed,WindExposed,0.50,0.50,0.50,0.50,4
HeatTransfer_Surface,PRODUCE_WALL_WEST,Wall,,CTF - ConductionTransferFunction,,0.780,0.698,,267.12,267.12,267.12,270.00,90.00,43.82,6.10,0.00,ExternalEnvironment,DOE-2,ASHRAETARP,SunExposed,WindExposed,0.50,0.50,0.50,0.50,4
HeatTransfer_Surface,SALES_WALL_WEST-PPAUTOCREATEOTHER,Wall,,CTF - ConductionTransferFunction,,6.299,3.242,,267.12,267.12,267.12,90.00,90.00,43.82,6.10,0.00,SALES_WALL_WEST,Other/Same Surface Int Conv,ASHRAETARP,NoSun,NoWind,0.50,0.50,0.50,0.50,4
HeatTransfer_Surface,PRODUCE_FLOOR,Floor,,CTF - ConductionTransferFunction,,12.904,3.120,,711.36,711.36,711.36,0.00,180.00,16.23,43.82,0.00,Ground,N/A-Ground,ASHRAETARP,NoSun,NoWind,1.00,0.00,1.00,0.00,4
HeatTransfer_Surface,PRODUCE_CEILING,Roof,,CTF - ConductionTransferFunction,,0.376,0.351,,711.36,711.36,711.36,180.00,0.00,16.23,43.82,0.00,ExternalEnvironment,DOE-2,ASHRAETARP,SunExposed,WindExposed,0.00,1.00,0.00,1.00,4
HeatTransfer_Surface,PRODUCE INTERNAL MASS,Internal Mass,,CTF - ConductionTransferFunction,,0.800,0.800,,1422.73,1422.73,1422.73,0.00,90.00,1422.73,1.00,0.00,PRODUCE INTERNAL MASS,Other/Same Surface Int Conv,ASHRAETARP,NoSun,NoWind,0.00,0.50,1.00,0.00,0
Zone_Surfaces,SALES,    9
HeatTransfer_Surface,BAKERY_WALL__4-PPAUTOCREATEOTHER,Wall,,CTF - ConductionTransferFunction,,6.299,3.242,,128.73,128.73,128.73,90.00,90.00,21.12,6.10,0.00,BAKERY_WALL__4,Other/Same Surface Int Conv,ASHRAETARP,NoSun,NoWind,0.50,0.50,0.50,0.50,4
HeatTransfer_Surface,DELI_WALL_WEST-PPAUTOCREATEOTHER,Wall,,CTF - ConductionTransferFunction,,6.299,3.242,,138.39,138.39,138.39,90.00,90.00,22.70,6.10,0.00,DELI_WALL_WEST,Other/Same Surface Int Conv,ASHRAETARP,NoSun,NoWind,0.50,0.50,0.50,0.50,4
HeatTransfer_Surface,SALES_WALL_NORTH,Wall,,CTF - ConductionTransferFunction,,6.299,3.242,,323.44,323.44,323.44,0.00,90.00,53.06,6.10,0.00,SALES_WALL_NORTH-PPAUTOCREATEOTHER,Other/Same Surface Int Conv,ASHRAETARP,NoSun,NoWind,0.50,0.50,0.50,0.50,4
HeatTransfer_Surface,SALES_WALL_SOUTH,Wall,,CTF - ConductionTransferFunction,,0.780,0.698,,148.73,323.44,148.73,180.00,90.00,53.06,6.10,0.00,ExternalEnvironment,DOE-2,ASHRAETARP,SunExposed,WindExposed,0.50,0.50,0.50,0.50,4
HeatTransfer_Surface,SALES_WALL_SOUTH_WINDOW,Window,SALES_WALL_SOUTH,Window5 Detailed Fenestration,,N/A,3.241,No,174.70,174.70,174.70,180.00,90.00,52.09,3.35,0.00,ExternalEnvironment,DOE-2,ASHRAETARP,SunExposed,WindExposed,0.50,0.50,0.50,0.50,4
HeatTransfer_Surface,SALES_WALL_WEST,Wall,,CTF - ConductionTransferFunction,,6.299,3.242,,267.12,267.12,267.12,270.00,90.00,43.82,6.10,0.00,SALES_WALL_WEST-PPAUTOCREATEOTHER,Other/Same Surface Int Conv,ASHRAETARP,NoSun,NoWind,0.50,0.50,0.50,0.50,4
HeatTransfer_Surface,SALES_FLOOR,Floor,,CTF - ConductionTransferFunction,,12.904,3.120,,2324.94,2324.94,2324.94,0.00,180.00,53.06,43.82,0.00,Ground,N/A-Ground,ASHRAETARP,NoSun,NoWind,1.00,0.00,1.00,0.00,4
HeatTransfer_Surface,SALES_CEILING,Roof,,CTF - ConductionTransferFunction,,0.376,0.351,,2324.94,2324.94,2324.94,180.00,0.00,53.06,43.82,0.00,ExternalEnvironment,DOE-2,ASHRAETARP,SunExposed,WindExposed,0.00,1.00,0.00,1.00,4
HeatTransfer_Surface,SALES INTERNAL MASS,Internal Mass,,CTF - ConductionTransferFunction,,0.800,0.800,,4649.88,4649.88,4649.88,0.00,90.00,4649.88,1.00,0.00,SALES INTERNAL MASS,Other/Same Surface Int Conv,ASHRAETARP,NoSun,NoWind,0.00,0.50,1.00,0.00,0
! <Environment>,Environment Name,Environment Type, Start Date, End Date, Start DayOfWeek, Duration {#days}, Source:Start DayOfWeek,  Use Daylight Saving, Use Holidays, Apply Weekend Holiday Rule,  Use Rain Values, Use Snow Values
! <Environment:Special Days>, Special Day Name, Special Day Type, Source, Start Date, Duration {#days}
! <Environment:Daylight Saving>, Daylight Saving Indicator, Source, Start Date, End Date
! <Environment:WarmupDays>, NumberofWarmupDays
Environment,San Francisco Intl Ap CA USA TMY3 WMO#=724940,WeatherFileRunPeriod,01/01,12/31,Sunday,365,Use RunPeriod Specified Day,No,No,No,Yes,Yes
Environment:Daylight Saving,Yes,InputFile,03/12,11/05
Environment:Special Days,NEW YEARS DAY,Holiday,InputFile,01/01,  1
Environment:Special Days,VETERANS DAY,Holiday,InputFile,11/11,  1
Environment:Special Days,CHRISTMAS,Holiday,InputFile,12/25,  1
Environment:Special Days,INDEPENDENCE DAY,Holiday,InputFile,07/04,  1
Environment:Special Days,MLK DAY,Holiday,InputFile,01/16,  1
Environment:Special Days,PRESIDENTS DAY,Holiday,InputFile,02/20,  1
Environment:Special Days,MEMORIAL DAY,Holiday,InputFile,05/29,  1
Environment:Special Days,LABOR DAY,Holiday,InputFile,09/04,  1
Environment:Special Days,COLUMBUS DAY,Holiday,InputFile,10/09,  1
Environment:Special Days,THANKSGIVING,Holiday,InputFile,11/23,  1
Environment:WarmupDays,  6
! <Tabular Report>,Style,Unit Conversion
Tabular Report,HTML,None
! <Warmup Convergence Information>,Zone Name,Environment Type/Name,Average Warmup Temperature Difference {deltaC},Std Dev Warmup Temperature Difference {deltaC},Max Temperature Pass/Fail Convergence,Min Temperature Pass/Fail Convergence,Average Warmup Load Difference {W},Std Dev Warmup Load Difference {W},Heating Load Pass/Fail Convergence,Cooling Load Pass/Fail Convergence
 Warmup Convergence Information,BAKERY,RunPeriod: San Francisco Intl Ap CA USA TMY3 WMO#=724940,0.1664885293,0.1749413543,Pass,Pass,0.0000000000,0.0000000000,Pass,Pass
 Warmup Convergence Information,DELI,RunPeriod: San Francisco Intl Ap CA USA TMY3 WMO#=724940,0.1630539422,0.1752364795,Pass,Pass,0.0000000000,0.0000000000,Pass,Pass
 Warmup Convergence Information,DRYSTORAGE,RunPeriod: San Francisco Intl Ap CA USA TMY3 WMO#=724940,5.2453336491E-002,3.8462388278E-002,Pass,Pass,0.0000000000,0.0000000000,Pass,Pass
 Warmup Convergence Information,OFFICE,RunPeriod: San Francisco Intl Ap CA USA TMY3 WMO#=724940,6.2283644812E-002,4.1153274160E-002,Pass,Pass,0.0000000000,0.0000000000,Pass,Pass
 Warmup Convergence Information,PRODUCE,RunPeriod: San Francisco Intl Ap CA USA TMY3 WMO#=724940,6.1750772499E-002,4.7344680818E-002,Pass,Pass,0.0000000000,0.0000000000,Pass,Pass
 Warmup Convergence Information,SALES,RunPeriod: San Francisco Intl Ap CA USA TMY3 WMO#=724940,8.6660967241E-002,6.0753600031E-002,Pass,Pass,0.0000000000,0.0000000000,Pass,Pass
! <Program Control Information:Threads/Parallel Sims>, Threading Supported,Maximum Number of Threads, Env Set Threads (OMP_NUM_THREADS), EP Env Set Threads (EP_OMP_NUM_THREADS), IDF Set Threads, Number of Threads Used (Interior Radiant Exchange), Number Nominal Surfaces, Number Parallel Sims
Program Control:Threads/Parallel Sims, No,1, N/A, N/A, N/A, N/A, N/A, N/A
End of Data
